#=======================================================================
data_global
#=======================================================================
_audit_creation_method                   'Jana2006 Version : 20/10/2020'

_publ_section_references
;
Palatinus L. & Chapuis G. (2007). J. Appl. Cryst. 40, 786-790.

Palatinus, L., Jacob, D., Cuvillier, P., Klementova, M., Sinkler, W. & Marks,
L. D. (2013). Acta Cryst. A. 69, 171-188.

Petricek, V., Dusek, M. & Palatinus L. (2014). Z. Kristallogr. 229(5), 345-352.

Palatinus, L., Brazda, P., Jelinek, M., Hrda, J., Steciuk, G. & Klementova, M.
(2019). Acta Cryst. B. 75, 512-522.
;
#=======================================================================
data_carbamazepine_dynamical
#=======================================================================
_computing_cell_refinement               'PETS2'
_computing_data_reduction                'PETS2'
_computing_structure_solution            'superflip'
_computing_structure_refinement          'Jana2006/Dyngo'
_computing_molecular_graphics            'VESTA 3'
#=======================================================================

# 5. CHEMICAL DATA

_chemical_formula_moiety                 'C15 H12 N2 O'
_chemical_formula_sum                    'C15 H16 N2 O'
_chemical_formula_weight                 236.3
_chemical_compound_source                ?
_chemical_absolute_configuration         .

#=======================================================================

# 6. CRYSTAL DATA

_symmetry_cell_setting                   monoclinic
_symmetry_space_group_name_H-M           'P 1 21/n 1'
_symmetry_space_group_name_Hall          '-P 2yabc'
_symmetry_Int_Tables_number              14

loop_
 _space_group_symop_id
 _space_group_symop_operation_xyz
 1   x,y,z
 2   -x+1/2,y+1/2,-z+1/2
 3   -x,-y,-z
 4   x+1/2,-y+1/2,z+1/2

_cell_length_a                           7.5162
_cell_length_b                           11.0697
_cell_length_c                           13.7782
_cell_angle_alpha                        90
_cell_angle_beta                         93.0492
_cell_angle_gamma                        90
_cell_volume                             1144.752

_cell_formula_units_Z                    4

_cell_measurement_reflns_used            ?
_cell_measurement_theta_min              ?
_cell_measurement_theta_max              ?
_cell_measurement_temperature            100
_cell_special_details
; ?
;

_exptl_crystal_density_diffrn            1.3709
_exptl_crystal_density_meas              ?
_exptl_crystal_density_method            ?
_exptl_crystal_F_000                     496

_exptl_absorpt_coefficient_mu            0
_exptl_crystal_description               ?
_exptl_crystal_size_max                  ?
_exptl_crystal_size_mid                  ?
_exptl_crystal_size_min                  ?
_exptl_crystal_size_rad                  ?
_exptl_crystal_colour                    ?
_exptl_absorpt_correction_type           ?
_exptl_absorpt_process_details           ?
_exptl_absorpt_correction_T_min          ?
_exptl_absorpt_correction_T_max          ?

#=======================================================================

# 7. EXPERIMENTAL DATA

_diffrn_ambient_temperature              100
_diffrn_source                           ?
_diffrn_source_power                     ?
_diffrn_source_voltage                   200000
_diffrn_source_current                   ?
_diffrn_radiation_type                   electron
_diffrn_radiation_source                 ?
_diffrn_radiation_wavelength             0.02508
_diffrn_measurement_device               'TEM ThermoFisher Talos Artica'
_diffrn_measurement_device_type          'CMOS'
_diffrn_detector                         'Ceta-D'
_diffrn_measurement_method               'continuous-rotation 3D electron diffraction'
_diffrn_measurement_specimen_support     'holey carbon grid'

_diffrn_reflns_number                    28242
_diffrn_reflns_theta_min                 0.08
_diffrn_reflns_theta_max                 0.93
_diffrn_reflns_theta_full                0.9
_diffrn_measured_fraction_theta_max      0.8
_diffrn_measured_fraction_theta_full     0.82
_diffrn_reflns_av_R_equivalents          ?
_diffrn_reflns_av_unetI/netI             0.0339
_diffrn_reflns_limit_h_min               -9
_diffrn_reflns_limit_h_max               9
_diffrn_reflns_limit_k_min               -13
_diffrn_reflns_limit_k_max               14
_diffrn_reflns_limit_l_min               -17
_diffrn_reflns_limit_l_max               17
_diffrn_reflns_reduction_process         ?

_diffrn_radiation_probe                  electron

#=======================================================================

# 8. REFINEMENT DATA

_refine_special_details
;
Calculated intensities based on dynamical theory of electron diffraction.
Number of individual data sets in refinement:  2
Block  Thickness     Nobs    Nall    Robs    Rall   wRall
   1      452.58     2574    3570  0.1335  0.1588  0.1525
   2     1383.71     5180    8013  0.1137  0.1466  0.1222
Thickness given in Angstrom.

Refinement statistics relevant for the non-linear least-squares minimisation of wR(all):
Number of reflections in refinement (obs/all):   7754 / 11583
Number of reflections present more than once:    6301
Number of reflections unique in point group 1:   5282
Robs:   0.1236
Rall:   0.1527
wRall:  0.1306

Post-refinement analysis of symmetrically-equivalent reflections:
Number of unique reflections (obs/all): 1657 / 1974
MRobs:  0.0997
MRall:  0.1094
MwRall: 0.1118
;

_reflns_number_total                     11583
_reflns_number_gt                        7754
_reflns_threshold_expression             'I>3\s(I)'

_refine_ls_structure_factor_coef         F
_refine_ls_R_factor_gt                   0.1236
_refine_ls_wR_factor_gt                  0.1276
_refine_ls_R_factor_all                  0.1527
_refine_ls_wR_factor_ref                 0.1306
_refine_ls_goodness_of_fit_ref           3.44
_refine_ls_goodness_of_fit_gt            4.14
_refine_ls_number_reflns                 11583
_refine_ls_number_parameters             407
_refine_ls_number_restraints             0
_refine_ls_number_constraints            36
_refine_ls_weighting_scheme              sigma
_refine_ls_weighting_details             'w=1/(\s^2^(F)+0.0001F^2^)'
_refine_ls_hydrogen_treatment            'constr'
_refine_ls_shift/su_max                  0.0445
_refine_ls_shift/su_mean                 0.0023
_refine_diff_density_max                 0.13
_refine_diff_density_min                 -0.11
_refine_ls_extinction_method             'none'
_refine_ls_extinction_coef               ?
_refine_ls_extinction_expression         ?
_refine_ls_abs_structure_details         ?
_refine_ls_abs_structure_Flack           ?
_refine_ls_abs_structure_Rogers          ?

loop_
 _atom_type_symbol
 _atom_type_scat_source
 C   International_Tables_Vol_C
 H   International_Tables_Vol_C
 N   International_Tables_Vol_C
 O   International_Tables_Vol_C

#=======================================================================

# 9. ATOMIC COORDINATES AND DISPLACEMENT PARAMETERS

loop_
 _atom_site_label
 _atom_site_type_symbol
 _atom_site_fract_x
 _atom_site_fract_y
 _atom_site_fract_z
 _atom_site_adp_type
 _atom_site_U_iso_or_equiv
 _atom_site_site_symmetry_multiplicity
 _atom_site_occupancy
 _atom_site_calc_flag
 _atom_site_refinement_flags
 _atom_site_disorder_assembly
 _atom_site_disorder_group
  O1 O 0.5080(4) 0.3746(2) 1.09297(17) Uani 0.0291(9) 4 1 d . . .
  N1 N 0.3213(4) 0.4011(3) 0.96123(18) Uani 0.0321(11) 4 1 d . . .
  N2 N 0.2939(4) 0.2328(2) 1.06118(18) Uani 0.0244(10) 4 1 d . . .
  C1 C 0.3800(4) 0.3387(3) 1.0415(2) Uani 0.0230(11) 4 1 d . . .
  C2 C 0.3296(4) 0.1691(3) 1.15036(18) Uani 0.0247(11) 4 1 d . . .
  C3 C 0.4909(4) 0.1103(3) 1.1683(2) Uani 0.0272(12) 4 1 d . . .
  H3 H 0.589663 0.112435 1.113972 Uiso 0.057(5) 4 1 d . . .
  C4 C 0.5278(5) 0.0484(3) 1.2555(2) Uani 0.0312(12) 4 1 d . . .
  H4 H 0.652805 0.000998 1.267973 Uiso 0.074(6) 4 1 d . . .
  C5 C 0.4014(4) 0.0482(3) 1.3264(2) Uani 0.0274(11) 4 1 d . . .
  H5 H 0.429613 0.00282 1.395083 Uiso 0.058(5) 4 1 d . . .
  C6 C 0.2411(5) 0.1062(3) 1.30848(19) Uani 0.0264(11) 4 1 d . . .
  H6 H 0.143083 0.10405 1.363187 Uiso 0.056(5) 4 1 d . . .
  C7 C 0.2011(4) 0.1685(3) 1.22028(19) Uani 0.0246(11) 4 1 d . . .
  C8 C 0.0280(4) 0.2249(3) 1.2059(2) Uani 0.0252(11) 4 1 d . . .
  H8 H -0.02901 0.26081 1.270313 Uiso 0.066(6) 4 1 d . . .
  C9 C -0.0705(4) 0.2381(3) 1.12232(20) Uani 0.0252(11) 4 1 d . . .
  H9 H -0.196465 0.284739 1.126121 Uiso 0.055(5) 4 1 d . . .
  C10 C -0.0238(4) 0.1959(3) 1.0282(2) Uani 0.0246(11) 4 1 d . . .
  C11 C -0.1614(5) 0.1617(3) 0.9604(2) Uani 0.0277(11) 4 1 d . . .
  H11 H -0.298615 0.171145 0.979281 Uiso 0.064(6) 4 1 d . . .
  C12 C -0.1243(5) 0.1164(3) 0.8706(2) Uani 0.0293(12) 4 1 d . . .
  H12 H -0.23294 0.090055 0.820357 Uiso 0.077(6) 4 1 d . . .
  C13 C 0.0506(5) 0.1038(3) 0.8434(2) Uani 0.0288(12) 4 1 d . . .
  H13 H 0.07892 0.068715 0.772571 Uiso 0.056(5) 4 1 d . . .
  C14 C 0.1881(5) 0.1376(3) 0.90949(19) Uani 0.0263(12) 4 1 d . . .
  H14 H 0.324553 0.125624 0.890046 Uiso 0.062(5) 4 1 d . . .
  C15 C 0.1553(4) 0.1859(3) 0.99910(20) Uani 0.0230(11) 4 1 d . . .
  H1a H 0.216844 0.370596 0.920121 Uiso 0.124(10) 4 1 d . . .
  H1b H 0.38244 0.477659 0.943092 Uiso 0.043(4) 4 1 d . . .

loop_
 _atom_site_aniso_label
 _atom_site_aniso_type_symbol
 _atom_site_aniso_U_11
 _atom_site_aniso_U_22
 _atom_site_aniso_U_33
 _atom_site_aniso_U_12
 _atom_site_aniso_U_13
 _atom_site_aniso_U_23
 O1 O 0.0394(19) 0.0171(16) 0.0302(12) -0.0113(12) -0.0028(13) 0.0058(11)
 N1 N 0.049(2) 0.0185(18) 0.0286(14) -0.0107(13) 0.0039(14) 0.0065(13)
 N2 N 0.0303(19) 0.0179(18) 0.0250(13) -0.0046(12) 0.0007(13) 0.0010(12)
 C1 C 0.022(2) 0.020(2) 0.0263(15) -0.0038(13) -0.0022(15) 0.0035(14)
 C2 C 0.031(2) 0.025(2) 0.0190(14) -0.0073(14) 0.0057(15) 0.0002(13)
 C3 C 0.026(2) 0.031(2) 0.0252(15) -0.0002(14) 0.0108(15) 0.0071(15)
 C4 C 0.030(2) 0.029(2) 0.0339(16) 0.0015(15) -0.0016(17) 0.0070(15)
 C5 C 0.037(2) 0.021(2) 0.0237(15) -0.0031(14) 0.0000(16) 0.0067(14)
 C6 C 0.040(2) 0.019(2) 0.0206(14) 0.0018(14) 0.0071(16) 0.0018(14)
 C7 C 0.033(2) 0.018(2) 0.0223(14) -0.0053(13) 0.0029(15) -0.0041(13)
 C8 C 0.033(2) 0.020(2) 0.0226(15) 0.0010(13) 0.0028(15) -0.0025(14)
 C9 C 0.025(2) 0.023(2) 0.0275(15) 0.0000(13) 0.0049(15) 0.0000(14)
 C10 C 0.030(2) 0.015(2) 0.0290(15) -0.0067(13) 0.0030(15) -0.0040(14)
 C11 C 0.037(2) 0.017(2) 0.0288(15) -0.0074(14) -0.0047(16) -0.0014(14)
 C12 C 0.042(2) 0.016(2) 0.0294(16) -0.0088(14) -0.0069(17) 0.0041(15)
 C13 C 0.042(2) 0.018(2) 0.0256(14) -0.0006(14) -0.0003(16) -0.0055(15)
 C14 C 0.031(2) 0.028(2) 0.0201(13) -0.0040(14) 0.0046(15) 0.0006(14)
 C15 C 0.031(2) 0.013(2) 0.0251(14) -0.0065(13) 0.0009(15) -0.0013(14)

#=======================================================================

# 10. MOLECULAR GEOMETRY

loop_
 _geom_bond_atom_site_label_1
 _geom_bond_atom_site_label_2
 _geom_bond_site_symmetry_1
 _geom_bond_site_symmetry_2
 _geom_bond_distance
 _geom_bond_publ_flag
  O1 C1 . . 1.230(4) ?
  N1 C1 . . 1.357(4) ?
  N2 C1 . . 1.373(4) ?
  N2 C2 . . 1.430(4) ?
  N2 C15 . . 1.411(4) ?
  C2 C3 . . 1.386(4) ?
  C2 C7 . . 1.400(4) ?
  C3 C4 . . 1.399(4) ?
  C4 C5 . . 1.398(4) ?
  C5 C6 . . 1.376(5) ?
  C6 C7 . . 1.416(4) ?
  C7 C8 . . 1.447(4) ?
  C8 C9 . . 1.343(4) ?
  C9 C10 . . 1.440(4) ?
  C10 C11 . . 1.408(4) ?
  C10 C15 . . 1.429(4) ?
  C11 C12 . . 1.378(4) ?
  C12 C13 . . 1.394(5) ?
  C13 C14 . . 1.391(4) ?
  C14 C15 . . 1.379(4) ?

loop_
 _geom_angle_atom_site_label_1
 _geom_angle_atom_site_label_2
 _geom_angle_atom_site_label_3
 _geom_angle_site_symmetry_1
 _geom_angle_site_symmetry_2
 _geom_angle_site_symmetry_3
 _geom_angle
 _geom_angle_publ_flag
  C1 N2 C2 . . . 121.5(2) ?
  C1 N2 C15 . . . 122.3(2) ?
  C2 N2 C15 . . . 116.0(3) ?
  O1 C1 N1 . . . 121.1(3) ?
  O1 C1 N2 . . . 121.6(3) ?
  N1 C1 N2 . . . 117.3(3) ?
  N2 C2 C3 . . . 120.4(3) ?
  N2 C2 C7 . . . 119.3(3) ?
  C3 C2 C7 . . . 120.3(3) ?
  C2 C3 C4 . . . 121.0(3) ?
  C3 C4 C5 . . . 119.4(3) ?
  C4 C5 C6 . . . 119.6(3) ?
  C5 C6 C7 . . . 121.7(3) ?
  C2 C7 C6 . . . 118.0(3) ?
  C2 C7 C8 . . . 123.5(3) ?
  C6 C7 C8 . . . 118.5(3) ?
  C7 C8 C9 . . . 128.0(3) ?
  C8 C9 C10 . . . 125.9(3) ?
  C9 C10 C11 . . . 118.6(3) ?
  C9 C10 C15 . . . 123.8(3) ?
  C11 C10 C15 . . . 117.6(3) ?
  C10 C11 C12 . . . 121.1(3) ?
  C11 C12 C13 . . . 121.1(3) ?
  C12 C13 C14 . . . 118.4(3) ?
  C13 C14 C15 . . . 121.9(3) ?
  N2 C15 C10 . . . 118.5(3) ?
  N2 C15 C14 . . . 121.6(3) ?
  C10 C15 C14 . . . 119.8(3) ?

#=======================================================================

# 11. STRUCTURE-FACTOR LIST

loop_
 _reflns_scale_group_code
 _reflns_scale_meas_intensity
4%1     4157.168
5%1     4180.559
6%1     4281.308
7%1     4770.407
8%1     4794.926
9%1     4789.700
10%1    5051.461
11%1    5320.551
12%1    5384.942
13%1    5226.013
14%1    5280.431
15%1    5277.959
16%1    5483.431
17%1    5579.638
18%1    5903.016
19%1    5706.622
20%1    5690.346
21%1    5392.199
22%1    5589.580
23%1    5601.195
24%1    5662.320
25%1    5632.786
26%1    5783.819
27%1    5730.690
28%1    5832.088
29%1    5888.047
30%1    6085.370
31%1    6146.557
32%1    5716.688
33%1    5684.376
34%1    5837.857
35%1    5760.598
36%1    6159.955
37%1    6499.293
38%1    6379.451
39%1    6342.680
40%1    6302.327
41%1    6332.943
42%1    6131.325
43%1    6195.338
44%1    6251.267
45%1    6225.610
46%1    6256.847
47%1    6163.812
48%1    6295.774
49%1    6491.801
50%1    6191.615
51%1    6205.676
52%1    6510.673
53%1    6620.481
54%1    6744.193
55%1    6565.056
56%1    6571.074
57%1    6529.205
58%1    6315.018
59%1    6638.614
60%1    6262.333
61%1    6377.347
62%1    6466.607
63%1    6559.478
64%1    6837.174
65%1    6311.615
66%1    6316.041
67%1    6034.889
68%1    6049.948
69%1    6088.047
70%1    6071.687
71%1    5299.469
72%1    6068.611
73%1    6313.718
74%1    5934.103
75%1    5928.037
76%1    5865.176
77%1    5821.490
78%1    5603.098
79%1    5190.281
80%1    5659.489
81%1    5792.155
82%1    6046.295
83%1    5428.170
84%1    5571.039
85%1    5277.304
86%1    5220.159
87%1    5632.172
88%1    5682.712
89%1    5598.337
90%1    5314.227
91%1    5263.318
92%1    5257.785
93%1    5203.146
94%1    5082.422
1%2     1742.373
2%2     1764.670
3%2     1902.325
4%2     1814.849
5%2     1609.042
6%2     1607.765
7%2     1578.527
8%2     1787.040
9%2     1780.040
10%2    1729.359
11%2    1810.418
12%2    1807.963
13%2    1790.687
14%2    1670.245
15%2    1644.945
16%2    1791.791
17%2    1829.696
18%2    1757.750
19%2    1786.049
20%2    1873.964
21%2    1772.772
22%2    1746.361
23%2    1874.946
24%2    1905.907
25%2    1870.094
26%2    1959.530
27%2    1905.814
28%2    1896.003
29%2    1916.201
30%2    2097.625
31%2    2072.756
32%2    2033.640
33%2    2059.184
34%2    1950.621
35%2    2081.591
36%2    2130.118
37%2    2163.965
38%2    2147.261
39%2    2145.985
40%2    2149.497
41%2    2125.734
42%2    2224.300
43%2    2254.823
44%2    2238.507
45%2    2232.751
46%2    2202.843
47%2    2278.812
48%2    2268.140
49%2    2265.587
50%2    2269.425
51%2    2253.353
52%2    1923.384
53%2    2241.196
54%2    2327.184
55%2    2394.800
56%2    2344.111
57%2    2381.641
58%2    2309.843
59%2    2313.332
60%2    2252.236
61%2    2289.085
62%2    2295.487
63%2    2369.063
64%2    2352.548
65%2    2314.048
66%2    2331.706
67%2    2263.112
68%2    2259.670
69%2    2318.820
70%2    2354.846
71%2    2303.784
72%2    2304.640
73%2    2281.775
74%2    2183.446
75%2    2185.279
76%2    2260.060
77%2    2272.748
78%2    2268.329
79%2    2170.958
80%2    2342.289
81%2    2441.771
82%2    2423.665
83%2    2169.191
84%2    2152.831
85%2    2188.992
86%2    2311.219
87%2    2271.176
88%2    2260.854
89%2    2165.646
90%2    2109.896
91%2    2093.970
92%2    2099.110
93%2    2112.254
94%2    2075.900
95%2    2108.753
96%2    2120.425
97%2    2119.477
98%2    2071.738
99%2    1986.182
100%2   1950.657
101%2   2000.514
102%2   1953.794
103%2   2034.294
104%2   1899.544
105%2   1973.185
106%2   1886.261
107%2   1855.816
108%2   1784.121
109%2   1815.716
110%2   1743.894
111%2   1794.284
112%2   1712.764
113%2   1788.699
114%2   1672.744
115%2   1781.232
116%2   1734.743
117%2   1761.462
118%2   1658.647
119%2   1577.346
120%2   1614.016
121%2   1492.562
122%2   1622.558
123%2   1356.923
124%2   1437.371
125%2   1520.354
126%2   1599.870
127%2   1571.419
128%2   1492.381
129%2   1548.860
130%2   1460.197
131%2   1636.194
132%2   1411.123
133%2   1403.430
134%2   1390.780
135%2   1284.438
136%2   1247.874
137%2   1289.160
138%2   1257.052
139%2   1285.997
140%2   1243.286

loop_
 _refln_index_h
 _refln_index_k
 _refln_index_l
 _refln_intensity_calc
 _refln_intensity_meas
 _refln_intensity_sigma
 _refln_scale_group_code
 _refln_observed_status
  -2 -11  -1   3789.90   2813.00   1105.80    4%1 <
  -3  -8  -1    139.14   1994.30   1659.30    4%1 <
  -3  -7  -1  10051.00  16771.00   1783.20    4%1 o
  -3  -6  -1  31807.00  40229.90   2153.40    4%1 o
  -3  -5  -1   7962.10  10818.40   1852.30    4%1 o
  -4  -4  -1   1034.30   2561.10   1587.90    4%1 <
  -4  -3  -1   1784.40   5455.00   1544.50    4%1 o
  -4  -2  -1   6483.50   7359.60   1805.60    4%1 o
  -5   0  -1   2633.00   3495.10   1448.20    4%1 <
  -5   1  -1  10254.00   8412.40   1576.60    4%1 o
  -5   2  -1   1262.70   -512.30   1469.20    4%1 <
  -6   3  -1   8101.90  10839.80   1432.40    4%1 o
  -6   4  -1    820.67   3309.30   1163.30    4%1 <
  -7   5  -1   1090.80   3673.30    858.80    4%1 o
  -6   5  -1    304.54   1155.70   1111.20    4%1 <
   2 -10   0    608.18   5013.20   1637.30    4%1 o
  -2   6   0 221130.00 200754.00   4207.10    4%1 o
  -3   9   0   5759.40   8900.00   1839.60    4%1 o
   5  -6   1  17851.00  23791.80   1711.00    4%1 o
   5  -5   1    821.90   1495.80   1294.10    4%1 <
   5  -4   1    776.48   4051.10   1217.00    4%1 o
   5  -3   1    785.77   2952.20   1245.20    4%1 <
   4   1   1   5631.50   4932.00   1816.30    4%1 <
   3   4   1  21537.00  20685.40   2165.90    4%1 o
   3   5   1  10104.00   9567.70   1853.10    4%1 o
   2   7   1  55084.00  40971.90   2474.10    4%1 o
   1  10   1   6517.50  13167.10   1965.30    4%1 o
   7   3   2   1535.80   2790.30    840.40    4%1 o
   7   4   2    543.86   1119.60    789.90    4%1 <
   6   7   2    216.22    848.60    753.90    4%1 <
  -4  -1  -1   4859.70   1130.80   1777.00    4%1 <
   4  -1   1   8272.50   5149.40   1812.70    4%1 <
   7   2   2     53.17   -716.90    773.20    4%1 <
   6   6   2   1347.70    540.00    835.10    4%1 <
  -3 -10  -1   2094.60   1816.40   1076.60    5%1 <
  -3  -9  -1    608.82   4343.00   1465.70    5%1 <
  -3  -8  -1    117.98   1994.30   1659.30    5%1 <
  -3  -7  -1   9964.40  16771.00   1783.20    5%1 o
  -4  -5  -1    776.08   1747.10   1360.20    5%1 <
  -4  -4  -1    404.82   2561.10   1587.90    5%1 <
  -4  -3  -1   1451.10   5455.00   1544.50    5%1 o
  -5  -2  -1   1218.00   1159.30   1352.80    5%1 <
  -4  -2  -1   7885.10   7359.60   1805.60    5%1 o
  -5  -1  -1   8519.00   6912.40   1491.70    5%1 o
  -5   0  -1   1567.00   3495.10   1448.20    5%1 <
  -6   1  -1    351.45    412.50   1254.00    5%1 <
  -5   1  -1   9325.10   8412.40   1576.60    5%1 o
  -6   2  -1   1981.10   1689.30   1306.10    5%1 <
  -6   3  -1   8238.40  10839.80   1432.40    5%1 o
  -7   4  -1    164.82    969.10    839.60    5%1 <
  -6   4  -1   1555.10   3309.30   1163.30    5%1 <
  -7   5  -1   2110.60   3673.30    858.80    5%1 o
   2 -10   0    660.58   5013.20   1637.30    5%1 o
  -2   6   0 219010.00 200754.00   4207.10    5%1 o
  -3   8   0   2952.80   8524.60   1943.70    5%1 o
  -3   9   0   5895.60   8900.00   1839.60    5%1 o
   6  -7   1   1561.20   2045.90    875.80    5%1 <
   6  -6   1   2131.80   3340.20    920.20    5%1 o
   5  -5   1    905.60   1495.80   1294.10    5%1 <
   5  -4   1    680.91   4051.10   1217.00    5%1 o
   5  -3   1    355.24   2952.20   1245.20    5%1 <
   5  -2   1   1356.80   1343.10   1375.20    5%1 <
   5  -1   1   8023.00  12068.80   1564.50    5%1 o
   4   1   1   5115.60   4932.00   1816.30    5%1 <
   4   2   1  10920.00  11541.10   1813.30    5%1 o
   3   4   1  24343.00  20685.40   2165.90    5%1 o
   3   5   1   5819.80   9567.70   1853.10    5%1 o
   2   8   1   3115.80   5036.40   1732.10    5%1 <
   7   3   2   1690.60   2790.30    840.40    5%1 o
   7   4   2    683.64   1119.60    789.90    5%1 <
   6   7   2    126.98    848.60    753.90    5%1 <
   5   8   2   4704.30   4092.40    887.70    6%1 o
  -7  -4  -2    628.08    346.00    719.80    6%1 <
  -2 -11  -1   2642.80   2813.00   1105.80    6%1 <
  -2 -10  -1     43.29   1089.90   1407.10    6%1 <
  -3  -6  -1  34996.00  40229.90   2153.40    6%1 o
  -3  -5  -1   8898.20  10818.40   1852.30    6%1 o
  -3  -4  -1  28043.00  26482.30   2221.60    6%1 o
  -4  -1  -1   5339.10   1130.80   1777.00    6%1 <
  -4   1  -1   7100.70   7470.60   1757.50    6%1 o
  -5   2  -1    941.71   -512.30   1469.20    6%1 <
  -5   3  -1    329.42    155.90   1202.90    6%1 <
  -5   4  -1    353.51    213.20   1292.30    6%1 <
  -6   5  -1   1393.90   1155.70   1111.20    6%1 <
  -6   6  -1   1699.80   1558.90    804.40    6%1 <
  -6   7  -1   1401.30   1175.50    789.20    6%1 <
  -3  10   0    842.17   4262.10   1245.00    6%1 o
   5  -8   1   9234.10  11100.10   1216.90    6%1 o
   5  -7   1     55.38   2474.00   1177.80    6%1 <
   5  -6   1  20625.00  23791.80   1711.00    6%1 o
   4  -3   1   1014.90   3155.40   1458.40    6%1 <
   4  -2   1  11334.00  13058.90   1911.70    6%1 o
   4  -1   1   7153.40   5149.40   1812.70    6%1 <
   3   2   1  22039.00  19724.70   2558.50    6%1 o
   3   3   1  58648.00  53005.80   2776.80    6%1 o
   3   4   1  26440.00  20685.40   2165.90    6%1 o
   2   7   1  50219.00  40971.90   2474.10    6%1 o
   1  10   1   4266.80  13167.10   1965.30    6%1 o
   7  -2   2     19.48   -810.80    762.40    6%1 <
   7  -1   2    991.88   1187.10    736.50    6%1 <
   7   1   2    955.50   1184.00    962.30    6%1 <
   7   2   2     84.18   -716.90    773.20    6%1 <
   6   3   2   5975.20   8219.20   1260.10    6%1 o
   7   3   2   1981.30   2790.30    840.40    6%1 o
   6   4   2   3811.30   4402.70   1030.70    6%1 o
   6   5   2   5856.50   5859.60   1105.10    6%1 o
   6   6   2    984.90    540.00    835.10    6%1 <
   5   5   2   7748.40  11765.80   1315.00    7%1 o
   5   6   2   3842.10   2220.90   1191.70    7%1 <
   4   8   2     49.92  -1194.00   1032.10    7%1 <
   4   9   2   5117.40   2664.20    929.30    7%1 <
  -5  -8  -2   3336.20   4402.40    838.80    7%1 o
  -5  -7  -2    474.29    202.30    927.00    7%1 <
  -6  -6  -2   1655.10   2801.20    847.20    7%1 o
  -6  -5  -2   7616.20   8845.20   1122.10    7%1 o
  -6  -4  -2   4232.70   7054.90   1154.10    7%1 o
  -6  -3  -2   6207.10   7861.90   1214.90    7%1 o
  -6  -2  -2    496.66    619.30    901.70    7%1 <
  -6  -1  -2   1728.10   3880.90   1179.30    7%1 o
  -7   1  -2   1524.00    726.40    800.90    7%1 <
  -7   2  -2     23.87    563.80    728.60    7%1 <
  -7   3  -2   2017.10   1324.50    737.20    7%1 <
  -2  -8  -1   1569.40  -2365.40   1706.80    7%1 <
  -2  -7  -1  63569.00  62821.50   2571.30    7%1 o
  -3  -2  -1  26386.00  11353.20   2641.50    7%1 o
  -3  -1  -1   4131.70   6185.00   2271.90    7%1 <
  -3   0  -1  59781.00  53393.90   3052.10    7%1 o
  -4   3  -1   2595.20   5666.40   1440.20    7%1 o
  -4   4  -1    372.29   3559.30   1334.70    7%1 <
  -5   7  -1     30.17    251.40    880.40    7%1 <
  -5   8  -1   8212.70   6448.00    933.20    7%1 o
   4  -8   1    295.16    -63.80   1139.30    7%1 <
   4  -7   1   1772.70    775.80   1343.70    7%1 <
   4  -6   1    366.75   3534.20   1202.20    7%1 <
   4  -5   1   1878.50   3392.00   1289.30    7%1 <
   3  -1   1   4591.00   3729.40   2508.50    7%1 <
   3   0   1  62925.00  52839.30   3007.20    7%1 o
   3   1   1   5764.30   7843.20   2506.60    7%1 o
   2   5   1  19009.00   8179.30   2449.10    7%1 o
   1   9   1   6547.80   9584.70   2165.40    7%1 o
   6  -3   2   6522.60   5947.20   1166.20    7%1 o
   6  -2   2    673.11    482.50    947.90    7%1 <
   6  -1   2   2515.40   4370.80   1193.60    7%1 o
   6   0   2  33369.00  39943.20   1923.80    7%1 o
   5   3   2   2039.00    962.70   1103.90    7%1 <
   5   4   2   2602.60   1482.90   1093.20    7%1 <
  -7  -1  -2   1349.40    792.30    774.50    7%1 <
   6   1   2   2208.70   4512.30   1058.30    7%1 o
   5   5   2   7873.90  11765.80   1315.00    8%1 o
   4   8   2     38.78  -1194.00   1032.10    8%1 <
   4   9   2   5215.60   2664.20    929.30    8%1 <
  -5  -8  -2   3592.80   4402.40    838.80    8%1 o
  -5  -7  -2    358.27    202.30    927.00    8%1 <
  -5  -6  -2   6666.40   5660.60   1122.80    8%1 o
  -6  -4  -2   4520.90   7054.90   1154.10    8%1 o
  -6  -3  -2   6416.50   7861.90   1214.90    8%1 o
  -6  -2  -2    465.65    619.30    901.70    8%1 <
  -6  -1  -2   1755.10   3880.90   1179.30    8%1 o
  -6   0  -2  29683.00  40400.50   1876.00    8%1 o
  -7   1  -2   1507.50    726.40    800.90    8%1 <
  -7   2  -2     36.03    563.80    728.60    8%1 <
  -7   3  -2   2146.20   1324.50    737.20    8%1 <
  -7   4  -2    816.76   2853.40    658.40    8%1 o
  -2  -8  -1   1961.20  -2365.40   1706.80    8%1 <
  -2  -7  -1  65302.00  62821.50   2571.30    8%1 o
  -2  -6  -1  73932.00  68853.30   2671.30    8%1 o
  -3  -1  -1   4103.60   6185.00   2271.90    8%1 <
  -3   0  -1  60512.00  53393.90   3052.10    8%1 o
  -4   3  -1   2581.50   5666.40   1440.20    8%1 o
  -4   4  -1    337.53   3559.30   1334.70    8%1 <
  -4   5  -1    807.42   2791.60   1335.40    8%1 <
  -5   7  -1     22.30    251.40    880.40    8%1 <
  -5   8  -1   8364.00   6448.00    933.20    8%1 o
  -2   9   0  12767.00  10177.80   2158.20    8%1 o
   4  -9   1    443.49    631.30    863.50    8%1 <
   4  -8   1    314.64    -63.80   1139.30    8%1 <
   4  -7   1   2238.40    775.80   1343.70    8%1 <
   4  -6   1    412.14   3534.20   1202.20    8%1 <
   3  -1   1   4435.90   3729.40   2508.50    8%1 <
   3   0   1  64876.00  52839.30   3007.20    8%1 o
   2   5   1  18460.00   8179.30   2449.10    8%1 o
   1   9   1   6257.00   9584.70   2165.40    8%1 o
   6  -4   2   5114.40   6416.50   1105.50    8%1 o
   6  -3   2   6676.20   5947.20   1166.20    8%1 o
   6  -2   2    671.00    482.50    947.90    8%1 <
   6  -1   2   2404.50   4370.80   1193.60    8%1 o
   6   0   2  33806.00  39943.20   1923.80    8%1 o
   5   3   2   2001.10    962.70   1103.90    8%1 <
   5   4   2   2432.80   1482.90   1093.20    8%1 <
   4   6   2   9920.50   8622.80   1357.90    9%1 o
   4   7   2   9804.80  16424.50   1544.50    9%1 o
   7   2   3   4465.00   4846.10    867.60    9%1 o
   7   3   3    841.35   1408.80    647.00    9%1 <
   7   4   3   2040.70   3041.90    658.70    9%1 o
  -5  -7  -2    546.36    202.30    927.00    9%1 <
  -5  -6  -2   7012.10   5660.60   1122.80    9%1 o
  -5  -5  -2   9105.80  10438.70   1317.70    9%1 o
  -5  -4  -2   2676.80   2014.70   1074.70    9%1 <
  -5  -3  -2   1267.60   2862.40   1057.30    9%1 <
  -6  -1  -2   1849.00   3880.90   1179.30    9%1 o
  -6   0  -2  29181.00  40400.50   1876.00    9%1 o
  -6   1  -2   1850.70   5300.00    986.30    9%1 o
  -6   2  -2    629.70    738.00   1023.50    9%1 <
  -7   4  -2    836.31   2853.40    658.40    9%1 o
  -2  -6  -1  68441.00  68853.30   2671.30    9%1 o
  -2  -5  -1  16450.00  12868.50   2443.40    9%1 o
  -3   0  -1  63019.00  53393.90   3052.10    9%1 o
  -3   1  -1   4673.80   2622.80   2377.20    9%1 <
  -4   5  -1   1279.80   2791.60   1335.40    9%1 <
  -4   6  -1    196.95    697.30   1231.40    9%1 <
  -2   9   0  14352.00  10177.80   2158.20    9%1 o
   4  -9   1    241.14    631.30    863.50    9%1 <
   4  -8   1    376.76    -63.80   1139.30    9%1 <
   3  -3   1  74920.00  61697.80   2854.70    9%1 o
   3  -2   1  28846.00  17238.60   2559.40    9%1 o
   3  -1   1   4999.20   3729.40   2508.50    9%1 <
   2   4   1  34981.00  32494.20   2817.10    9%1 o
   6  -7   2     82.16   -115.60    573.10    9%1 <
   6  -6   2   2101.60   2582.80    718.20    9%1 o
   6  -5   2   8962.90  10574.30   1173.40    9%1 o
   6  -4   2   4929.10   6416.50   1105.50    9%1 o
   6  -3   2   6500.10   5947.20   1166.20    9%1 o
   5   1   2  15439.00  20391.20   1554.40    9%1 o
   5   2   2   3882.20   4179.50   1255.60    9%1 o
   5   3   2   2218.40    962.70   1103.90    9%1 <
  -7  -4  -3   2233.30   3447.40    699.90   10%1 o
  -4  -9  -2   3936.00   3118.20    896.70   10%1 o
  -4  -8  -2     76.14   1237.20   1062.60   10%1 <
  -4  -7  -2  12706.00  16731.50   1563.60   10%1 o
  -5  -3  -2   1574.60   2862.40   1057.30   10%1 <
  -5  -2  -2   3014.00   4556.20   1186.90   10%1 o
  -5  -1  -2  15484.00  17349.00   1467.70   10%1 o
  -6   2  -2    781.30    738.00   1023.50   10%1 <
  -6   3  -2   7448.60   7640.60   1168.80   10%1 o
  -6   4  -2   5223.10   6315.30   1047.70   10%1 o
  -6   5  -2   6964.30   8754.70   1037.80   10%1 o
  -2  -4  -1  38602.00  38946.90   3065.70   10%1 o
  -2  -3  -1  60999.00  52683.00   3162.10   10%1 o
  -3   2  -1  24841.00  27128.70   2567.30   10%1 o
  -3   3  -1  78967.00  79578.10   2872.50   10%1 o
  -4   6  -1    173.70    697.30   1231.40   10%1 <
  -4   7  -1   2858.80    752.70   1189.90   10%1 <
   3  -4   1  45803.00  42179.10   2381.10   10%1 o
   3  -3   1  72459.00  61697.80   2854.70   10%1 o
   2   2   1   7371.70  12046.80   3254.30   10%1 o
   2   3   1  65347.00  56953.40   3133.90   10%1 o
   6  -7   2    110.05   -115.60    573.10   10%1 <
   5  -2   2   4640.30   3132.00   1196.60   10%1 <
   5  -1   2  16787.00  16185.10   1397.40   10%1 o
   4   4   2   3336.80   3686.90   1191.60   10%1 o
   4   5   2    284.54    281.00   1162.90   10%1 <
   3   9   2    231.40    465.00   1085.40   10%1 <
   3  10   2   1040.20   -776.80    733.40   10%1 <
   7  -1   3   8615.30  12265.60   1134.90   10%1 o
   7   0   3  13606.00  18722.40   1248.50   10%1 o
   7   1   3   8051.60   6622.20   1025.60   10%1 o
   7   2   3   3947.60   4846.10    867.60   10%1 o
   6   5   3   4560.20   6109.50    885.50   10%1 o
   6   6   3     74.46    615.90    502.00   10%1 <
  -7  -4  -3   2642.60   3447.40    699.90   11%1 o
  -7  -3  -3    650.39   1044.20    565.20   11%1 <
  -7  -2  -3   5006.50   4225.00    740.70   11%1 o
  -7  -1  -3   7999.20  12745.70   1089.00   11%1 o
  -7   0  -3  13253.00  17959.90   1219.80   11%1 o
  -4  -7  -2  12929.00  16731.50   1563.60   11%1 o
  -4  -6  -2  10194.00  10072.50   1314.10   11%1 o
  -4  -5  -2    253.71   1607.80   1104.60   11%1 <
  -4  -4  -2   5301.40   6730.10   1243.60   11%1 o
  -5   1  -2  17355.00  19226.80   1498.30   11%1 o
  -5   2  -2   4592.60   6473.10   1156.80   11%1 o
  -6   5  -2   7966.90   8754.70   1037.80   11%1 o
  -6   6  -2   1956.50   1779.20    751.90   11%1 <
  -6   7  -2    264.92    237.30    472.50   11%1 <
  -1 -10  -1   3234.10   5725.70   1649.00   11%1 o
  -2  -3  -1  66690.00  52683.00   3162.10   11%1 o
  -2  -2  -1   7278.90  -1261.40   3182.60   11%1 <
  -3   3  -1  86593.00  79578.10   2872.50   11%1 o
  -3   4  -1  44725.00  36475.70   2291.90   11%1 o
  -4   8  -1    269.36    919.30   1094.70   11%1 <
  -2  10   0    838.87   -626.70   1466.90   11%1 <
   3  -6   1  60453.00  55153.10   2193.00   11%1 o
   3  -5   1  12639.00  11669.60   1774.80   11%1 o
   3  -4   1  46787.00  42179.10   2381.10   11%1 o
   2   2   1   8749.60  12046.80   3254.30   11%1 o
   1   7   1    169.33   -201.10   1939.80   11%1 <
   5  -5   2  10208.00  15842.10   1296.30   11%1 o
   5  -4   2   3195.60   5097.20   1036.10   11%1 o
   5  -3   2   2180.80   2423.40   1120.60   11%1 <
   5  -2   2   4978.60   3132.00   1196.60   11%1 <
   4   2   2    988.54   1786.90   1377.80   11%1 <
   4   3   2  16175.00  16837.90   1657.50   11%1 o
   4   4   2   4682.70   3686.90   1191.60   11%1 o
   3   8   2     34.39   2319.90   1148.00   11%1 <
   7  -4   3   1949.20   2522.90    633.60   11%1 o
   7  -3   3   1321.40   2220.90    639.70   11%1 o
   7  -2   3   4772.60   4295.80    746.50   11%1 o
   7  -1   3   9067.80  12265.60   1134.90   11%1 o
   6   2   3  12839.00  15244.10   1403.40   11%1 o
   6   3   3  15768.00  13360.20   1242.30   11%1 o
   6   4   3   7221.40   7849.10   1079.80   11%1 o
   6   5   3   5201.70   6109.50    885.50   11%1 o
   5   8   3     95.06    268.60    490.50   11%1 <
  -6  -6  -3     94.74   1341.70    586.10   12%1 <
  -6  -5  -3   5505.60   3924.70    879.50   12%1 o
  -6  -4  -3   6440.20   9152.50   1047.50   12%1 o
  -7  -2  -3   5216.40   4225.00    740.70   12%1 o
  -7  -1  -3   7997.90  12745.70   1089.00   12%1 o
  -7   0  -3  13969.00  17959.90   1219.80   12%1 o
  -7   1  -3   8024.80  12015.50    958.00   12%1 o
  -7   2  -3   4513.40   4101.00    762.80   12%1 o
  -4  -5  -2    178.47   1607.80   1104.60   12%1 <
  -4  -4  -2   6344.00   6730.10   1243.60   12%1 o
  -4  -3  -2  14654.00  14768.80   1586.10   12%1 o
  -4  -2  -2   1395.30   3807.40   1290.50   12%1 <
  -5   2  -2   4394.70   6473.10   1156.80   12%1 o
  -5   3  -2   2613.30   2985.60   1083.20   12%1 <
  -5   4  -2   3319.10   2367.90    896.80   12%1 <
  -6   7  -2    338.93    237.30    472.50   12%1 <
  -1 -10  -1   3023.50   5725.70   1649.00   12%1 o
  -2  -2  -1   8184.90  -1261.40   3182.60   12%1 <
  -2  -1  -1   5511.60   1850.90   3840.90   12%1 <
  -3   4  -1  46341.00  36475.70   2291.90   12%1 o
  -3   5  -1  14311.00  11819.90   1746.80   12%1 o
  -4   9  -1    313.96    312.10    664.40   12%1 <
   3  -8   1    468.52   2342.20   1384.80   12%1 <
   3  -7   1  16164.00  18136.00   1686.90   12%1 o
   3  -6   1  60640.00  55153.10   2193.00   12%1 o
   2   1   1   5517.90   4723.10   3467.90   12%1 <
   5  -8   2   5382.30   4564.50    805.60   12%1 o
   5  -7   2     32.67    963.60    816.50   12%1 <
   5  -6   2   6008.10   5763.30   1039.90   12%1 o
   5  -5   2  10946.00  15842.10   1296.30   12%1 o
   4   1   2  24548.00  20982.00   1759.40   12%1 o
   4   2   2   1487.90   1786.90   1377.80   12%1 <
   3   7   2  25353.00  19988.80   1484.10   12%1 o
   3   8   2     97.63   2319.90   1148.00   12%1 <
   7  -4   3   1713.90   2522.90    633.60   12%1 o
   6   1   3   4591.00   6845.00   1087.40   12%1 o
   6   2   3  12786.00  15244.10   1403.40   12%1 o
   6   3   3  16092.00  13360.20   1242.30   12%1 o
   5   7   3   2038.20   2143.90    738.60   12%1 <
   5   8   3     43.84    268.60    490.50   12%1 <
  -6  -6  -3     54.63   1341.70    586.10   13%1 <
  -6  -5  -3   4592.60   3924.70    879.50   13%1 o
  -6  -4  -3   6023.60   9152.50   1047.50   13%1 o
  -6  -3  -3  13081.00  13608.20   1214.00   13%1 o
  -6  -2  -3  11867.00  17351.00   1318.80   13%1 o
  -6  -1  -3   3279.50   4081.50   1022.80   13%1 o
  -7   2  -3   4454.70   4101.00    762.80   13%1 o
  -7   3  -3   1033.60   1495.20    540.30   13%1 <
  -7   4  -3   1568.50   2795.30    560.80   13%1 o
  -3 -10  -2    820.06   1664.30    625.10   13%1 <
  -4  -3  -2  13938.00  14768.80   1586.10   13%1 o
  -4  -2  -2   1074.10   3807.40   1290.50   13%1 <
  -4  -1  -2  19499.00  15599.90   1655.20   13%1 o
  -5   4  -2   3031.80   2367.90    896.80   13%1 <
  -5   5  -2  10184.00  15649.20   1370.40   13%1 o
  -5   6  -2   5447.30   5474.30    972.40   13%1 o
  -1 -10  -1   3014.00   5725.70   1649.00   13%1 o
  -2  -1  -1   5510.30   1850.90   3840.90   13%1 <
  -3   5  -1  11574.00  11819.90   1746.80   13%1 o
  -3   6  -1  55836.00  58781.00   2254.30   13%1 o
   3 -10   1   5623.10   5723.20    926.70   13%1 o
   3  -9   1   1046.20   -155.20   1146.80   13%1 <
   3  -8   1    243.25   2342.20   1384.80   13%1 <
   5  -8   2   5660.90   4564.50    805.60   13%1 o
   4  -1   2  21530.00  20444.60   1734.80   13%1 o
   4   0   2 105780.00  90750.30   2698.10   13%1 o
   4   1   2  20875.00  20982.00   1759.40   13%1 o
   3   6   2  12495.00  11322.20   1395.70   13%1 o
   3   7   2  22414.00  19988.80   1484.10   13%1 o
   6  -3   3  14805.00  16021.80   1255.00   13%1 o
   6  -2   3  13150.00  16239.00   1377.60   13%1 o
   6  -1   3   3872.70   5229.90    913.30   13%1 o
   6   1   3   3129.30   6845.00   1087.40   13%1 o
   5   5   3    296.99    318.80    799.30   13%1 <
   5   6   3   3608.90   1269.10    864.10   13%1 <
   5   7   3   2382.60   2143.90    738.60   13%1 <
  -5  -8  -3    154.52   -403.00    452.00   14%1 <
  -5  -7  -3   2288.80   2519.60    705.80   14%1 o
  -5  -6  -3   2737.00   2341.40    829.00   14%1 <
  -6  -2  -3  12262.00  17351.00   1318.80   14%1 o
  -6  -1  -3   3178.30   4081.50   1022.80   14%1 o
  -6   1  -3   3717.70   5310.00    963.80   14%1 o
  -6   2  -3  11591.00  15580.40   1330.30   14%1 o
  -3 -10  -2   1371.90   1664.30    625.10   14%1 <
  -3  -9  -2   1357.90   -753.50    969.70   14%1 <
  -3  -8  -2     60.06   3702.00   1103.80   14%1 o
  -3  -7  -2  21154.00  19905.60   1615.40   14%1 o
  -4   0  -2  99034.00  82059.10   2650.60   14%1 o
  -4   1  -2  21145.00  21937.10   1715.70   14%1 o
  -5   6  -2   5940.10   5474.30    972.40   14%1 o
  -5   7  -2     37.29    389.90    687.80   14%1 <
  -2   1  -1   5677.60   5184.90   3823.50   14%1 <
  -3   6  -1  56597.00  58781.00   2254.30   14%1 o
  -3   7  -1  15029.00  12827.30   1586.30   14%1 o
   3 -10   1   5670.90   5723.20    926.70   14%1 o
   2  -1   1   5354.00  23675.50   3806.90   14%1 o
   1   6   1  17509.00  18876.10   2611.50   14%1 o
   4  -3   2  16575.00  17241.20   1473.90   14%1 o
   4  -2   2    631.65   1368.30   1418.60   14%1 <
   4  -1   2  21514.00  20444.60   1734.80   14%1 o
   3   5   2   8561.10   7528.90   1295.70   14%1 o
   3   6   2  12334.00  11322.20   1395.70   14%1 o
   2  11   2  12792.00  11054.00    955.60   14%1 o
   6  -6   3     99.35    855.40    476.80   14%1 <
   6  -5   3   5200.20   7316.70    830.10   14%1 o
   6  -4   3   7012.30  10138.70   1185.50   14%1 o
   6  -3   3  14720.00  16021.80   1255.00   14%1 o
   6  -2   3  13037.00  16239.00   1377.60   14%1 o
   5   3   3   1578.30   1089.50    900.90   14%1 <
   5   4   3  10226.00  10606.90   1137.20   14%1 o
   5   5   3    304.56    318.80    799.30   14%1 <
   4   9   3    523.39   1549.60    488.20   14%1 o
   7   1   4     96.82    540.20    495.70   14%1 <
   7   2   4    225.07   1068.60    447.90   14%1 <
   7   3   4    591.72    405.70    457.60   14%1 <
  -2   1  -1   4847.60   5184.90   3823.50   15%1 <
  -3   6  -1  52956.00  58781.00   2254.30   15%1 o
   3 -10   1   5531.30   5723.20    926.70   15%1 o
   3  -9   1   1456.50   -155.20   1146.80   15%1 <
   2  -1   1   5588.70  23675.50   3806.90   15%1 o
   3   4   2  17749.00  16664.20   1696.80   15%1 o
   2   9   2   2482.10   3276.10   1201.50   15%1 <
   2  10   2   2007.20    431.90    807.10   15%1 <
   6  -6   3     79.65    855.40    476.80   15%1 <
   4   8   3   3258.20   4722.50    822.90   15%1 o
   4   9   3    656.51   1549.60    488.20   15%1 o
   6   6   4    248.74    361.20    415.70   15%1 <
  -5  -8  -3     73.35   -403.00    452.00   15%1 <
  -5  -7  -3   2302.30   2519.60    705.80   15%1 o
  -5  -6  -3   3469.30   2341.40    829.00   15%1 <
  -5  -5  -3    214.33    655.40    828.50   15%1 <
  -5  -4  -3   9107.30   8363.00   1016.80   15%1 o
  -6   1  -3   3746.80   5310.00    963.80   15%1 o
  -6   2  -3  11441.00  15580.40   1330.30   15%1 o
  -3  -7  -2  21747.00  19905.60   1615.40   15%1 o
  -3  -6  -2  11926.00  14106.60   1430.20   15%1 o
  -3  -5  -2   9301.10   5703.70   1305.40   15%1 o
  -4   0  -2  99507.00  82059.10   2650.60   15%1 o
  -4   1  -2  21279.00  21937.10   1715.70   15%1 o
  -4   2  -2    889.80    991.20   1399.80   15%1 <
  -5   6  -2   5876.40   5474.30    972.40   15%1 o
  -5   7  -2     76.00    389.90    687.80   15%1 <
   4  -3   2  15391.00  17241.20   1473.90   15%1 o
   4  -2   2   1693.80   1368.30   1418.60   15%1 <
   3   5   2   9679.00   7528.90   1295.70   15%1 o
   6  -5   3   5159.80   7316.70    830.10   15%1 o
   6  -4   3   7105.30  10138.70   1185.50   15%1 o
   6  -3   3  15166.00  16021.80   1255.00   15%1 o
   5   2   3   5089.00   3905.80   1093.40   15%1 o
   5   3   3   1981.90   1089.50    900.90   15%1 <
   5   4   3   9400.00  10606.90   1137.20   15%1 o
   7  -1   4    108.36    314.20    433.00   15%1 <
   7   1   4    110.27    540.20    495.70   15%1 <
   7   2   4    345.95   1068.60    447.90   15%1 <
   7   3   4    522.15    405.70    457.60   15%1 <
  -2   2  -1  10909.00  11627.00   3356.90   16%1 o
  -3   8  -1   1365.80   1561.40   1172.00   16%1 <
   2  -3   1  75321.00  72089.00   3286.60   16%1 o
   4  -7   2  13393.00  20357.60   1457.90   16%1 o
   4  -6   2  11981.00  12101.50   1183.60   16%1 o
   4  -5   2    165.67    290.40    953.00   16%1 <
   3   2   2  88888.00  57574.70   2811.50   16%1 o
   2   8   2   4587.70   6879.80   1286.10   16%1 o
   5  -2   3   6431.30   5032.20   1052.20   16%1 o
   5  -1   3  39798.00  41282.20   1776.90   16%1 o
   5   0   3  56616.00  54758.50   2033.80   16%1 o
   4   5   3    396.71    478.90    916.80   16%1 <
   4   6   3   2180.60   8251.30   1065.40   16%1 o
   7  -3   4   1870.50    802.30    443.60   16%1 <
   6   2   4   8968.30  11968.30   1150.90   16%1 o
   6   3   4   8431.50  13907.70   1135.10   16%1 o
   6   4   4  21564.00  21214.10   1257.90   16%1 o
  -6  -6  -4    256.43   -281.00    392.80   16%1 <
  -7   1  -4     58.16    126.60    411.40   16%1 <
  -4  -9  -3    567.89    726.10    432.90   16%1 <
  -4  -8  -3   3183.50   4111.20    795.60   16%1 o
  -5  -1  -3  33622.00  43291.70   1803.30   16%1 o
  -5   0  -3  53511.00  53751.40   1979.40   16%1 o
  -6   5  -3   4881.00   5910.40    797.90   16%1 o
  -6   6  -3    210.33    312.80    423.80   16%1 <
  -3  -4  -2  19609.00  14580.90   1639.60   16%1 o
  -3  -3  -2  26890.00  20860.30   2079.00   16%1 o
  -4   4  -2   4687.00   5417.90   1156.40   16%1 o
  -7  -2  -4    368.22    976.00    453.40   16%1 <
  -7  -1  -4    114.27      2.30    377.90   16%1 <
  -5  -2  -3   5600.70   4142.50   1016.50   16%1 o
  -6   4  -3   7088.80   9577.00   1011.30   16%1 o
  -4   3  -2  15753.00  16824.60   1418.80   16%1 o
  -1  -5  -1   8194.90   8473.80   3139.10   17%1 <
  -2   2  -1  11163.00  11627.00   3356.90   17%1 o
  -3   8  -1   2021.20   1561.40   1172.00   17%1 <
   2  -3   1  75692.00  72089.00   3286.60   17%1 o
   4  -8   2    247.84   1400.40    834.40   17%1 <
   4  -7   2  13622.00  20357.60   1457.90   17%1 o
   4  -6   2  12452.00  12101.50   1183.60   17%1 o
   3   1   2   7255.30   5071.40   2193.20   17%1 <
   3   2   2  90684.00  57574.70   2811.50   17%1 o
   2   8   2   4426.90   6879.80   1286.10   17%1 o
   5  -3   3   2051.10   3416.60   1004.10   17%1 o
   5  -2   3   6727.30   5032.20   1052.20   17%1 o
   5  -1   3  40420.00  41282.20   1776.90   17%1 o
   4   5   3    464.37    478.90    916.80   17%1 <
   4   6   3   2207.30   8251.30   1065.40   17%1 o
   6   1   4   6819.80  11629.20   1065.90   17%1 o
   6   2   4   8473.10  11968.30   1150.90   17%1 o
   6   3   4  10489.00  13907.70   1135.10   17%1 o
   5   8   4   1356.20    368.20    397.30   17%1 <
  -6  -6  -4    248.97   -281.00    392.80   17%1 <
  -6  -5  -4    963.92   1105.30    544.60   17%1 <
  -6  -4  -4  14762.00  26083.50   1332.20   17%1 o
  -7   1  -4     82.46    126.60    411.40   17%1 <
  -7   2  -4    295.50   1143.70    382.70   17%1 <
  -7   3  -4    524.71    709.90    413.70   17%1 <
  -4  -9  -3    484.86    726.10    432.90   17%1 <
  -4  -8  -3   3501.50   4111.20    795.60   17%1 o
  -4  -7  -3    606.36    268.90    927.30   17%1 <
  -5  -1  -3  36392.00  43291.70   1803.30   17%1 o
  -5   0  -3  57210.00  53751.40   1979.40   17%1 o
  -5   1  -3  32966.00  38093.00   1737.00   17%1 o
  -6   5  -3   5000.20   5910.40    797.90   17%1 o
  -6   6  -3    192.86    312.80    423.80   17%1 <
  -2 -11  -2  12664.00  10229.90    858.90   17%1 o
  -3  -3  -2  27827.00  20860.30   2079.00   17%1 o
  -3  -2  -2  94938.00  77934.20   2925.20   17%1 o
  -4   4  -2   3836.00   5417.90   1156.40   17%1 o
  -4   5  -2   3439.20   5043.50    938.00   17%1 o
  -4   7  -2  15268.00  11767.90   1254.60   18%1 o
  -2   4  -1  50953.00  39458.30   2941.20   18%1 o
  -3  10  -1   5436.90   5628.50    769.80   18%1 o
   2  -5   1  25294.00  21038.00   2366.00   18%1 o
   3  -1   2   2357.80  10026.50   2141.90   18%1 o
   2   7   2  60850.00  55102.90   2120.70   18%1 o
   5  -8   3    838.90   3118.40    545.20   18%1 o
   5  -7   3   2543.00   5980.60    774.40   18%1 o
   5  -6   3   6110.30   5099.20    861.00   18%1 o
   5  -5   3    984.27   2539.50    897.00   18%1 <
   4   3   3    585.11   1423.60    938.70   18%1 <
   4   4   3  23397.00  13885.00   1238.60   18%1 o
   3  10   3   2483.00   3668.70    632.50   18%1 o
   6  -3   4   9210.30   9151.20    997.90   18%1 o
   6  -2   4  10810.00  12318.00   1075.00   18%1 o
   6  -1   4   7261.60   9921.00   1012.50   18%1 o
   6   0   4   7063.10   5637.10    958.90   18%1 o
   5   5   4   6602.30   8035.00   1061.50   18%1 o
   5   6   4   1948.40   1308.80    646.60   18%1 <
   5   7   4   2504.90   3152.80    600.70   18%1 o
   7   1   5   2026.70   2573.50    513.00   18%1 o
   7   2   5   1530.30   1061.10    450.70   18%1 <
  -6  -4  -4  18193.00  26083.50   1332.20   18%1 o
  -6  -3  -4   8188.20  11083.20   1082.70   18%1 o
  -6  -2  -4  11399.00  15412.70   1192.10   18%1 o
  -6  -1  -4   7246.20  11234.30   1100.10   18%1 o
  -6   0  -4   5573.30   4015.80    770.50   18%1 o
  -4  -7  -3    195.14    268.90    927.30   18%1 <
  -4  -6  -3     88.04    284.20    876.60   18%1 <
  -4  -5  -3    965.79   1004.20    781.60   18%1 <
  -5   2  -3   5771.50   8104.50   1110.90   18%1 o
  -5   3  -3   1768.40   2104.20    874.60   18%1 <
  -5   4  -3   8309.80   7911.60   1020.80   18%1 o
  -2 -11  -2  13866.00  10229.90    858.90   18%1 o
  -2 -10  -2   1525.90    360.90    705.10   18%1 <
  -3  -1  -2   3322.00   4465.80   2144.20   18%1 <
  -4   6  -2  12496.00  10794.30   1158.30   18%1 o
   7   0   5   2112.10   3051.30    542.80   18%1 o
  -5  -8  -4   1248.20    781.20    403.60   19%1 <
  -5  -7  -4   3142.80   4276.00    588.90   19%1 o
  -6  -1  -4   7119.90  11234.30   1100.10   19%1 o
  -6   0  -4   3990.00   4015.80    770.50   19%1 o
  -6   1  -4   5693.70  10318.50   1023.40   19%1 o
  -4  -5  -3   1116.50   1004.20    781.60   19%1 <
  -4  -4  -3  20403.00  16969.50   1326.50   19%1 o
  -4  -3  -3    192.45    876.80    901.00   19%1 <
  -5   3  -3   1877.50   2104.20    874.60   19%1 <
  -5   4  -3   8967.20   7911.60   1020.80   19%1 o
  -5   5  -3   1851.90   3007.70    746.10   19%1 o
  -2 -10  -2   1339.20    360.90    705.10   19%1 <
  -2  -9  -2   2014.80   4687.60   1213.30   19%1 o
  -2  -8  -2   7636.60  13939.30   1430.50   19%1 o
  -3   1  -2   4071.90  12203.80   1950.90   19%1 o
  -4   7  -2  15407.00  11767.90   1254.60   19%1 o
  -4   8  -2     69.32   1467.20    676.40   19%1 <
  -2   4  -1  44092.00  39458.30   2941.20   19%1 o
  -3  10  -1   3862.10   5628.50    769.80   19%1 o
   2  -5   1  24031.00  21038.00   2366.00   19%1 o
   3  -2   2  88965.00  60105.90   2633.10   19%1 o
   3  -1   2   3570.20  10026.50   2141.90   19%1 o
   2   6   2  24018.00  47115.00   2075.60   19%1 o
   5  -8   3   1366.70   3118.40    545.20   19%1 o
   5  -7   3   2599.00   5980.60    774.40   19%1 o
   5  -6   3   3817.10   5099.20    861.00   19%1 o
   4   1   3  17577.00  23804.90   1548.90   19%1 o
   4   2   3  51121.00  32130.40   1862.20   19%1 o
   4   3   3    857.40   1423.60    938.70   19%1 <
   3   9   3  15210.00  10714.10   1009.00   19%1 o
   6  -5   4   1764.70   2619.70    572.90   19%1 o
   6  -4   4  14593.00  16761.30   1092.20   19%1 o
   6  -3   4   8832.50   9151.20    997.90   19%1 o
   6  -2   4  10500.00  12318.00   1075.00   19%1 o
   5   4   4   1973.60   1924.00    790.60   19%1 <
   5   5   4   2229.70   8035.00   1061.50   19%1 o
   5   6   4   1726.90   1308.80    646.60   19%1 <
   7  -2   5    873.00    933.50    402.70   19%1 <
   7  -1   5   3369.10   4214.70    622.20   19%1 o
   7   0   5   1649.10   3051.30    542.80   19%1 o
   7   1   5   1951.10   2573.50    513.00   19%1 o
   6   6   5   1788.00   1286.10    420.00   19%1 o
  -7  -2  -5   1177.70   1477.70    332.20   19%1 o
  -7  -2  -5    786.49   1477.70    332.20   20%1 o
  -7  -1  -5   2883.00   2701.20    435.70   20%1 o
  -5  -8  -4    980.43    781.20    403.60   20%1 <
  -5  -7  -4   3831.00   4276.00    588.90   20%1 o
  -5  -6  -4   1996.90   2921.60    759.10   20%1 o
  -6   0  -4   5212.60   4015.80    770.50   20%1 o
  -6   1  -4   6026.40  10318.50   1023.40   20%1 o
  -6   2  -4  11070.00   7663.90   1027.40   20%1 o
  -4  -3  -3    760.94    876.80    901.00   20%1 <
  -4  -2  -3  49231.00  39573.80   1839.40   20%1 o
  -5   4  -3   5469.00   7911.60   1020.80   20%1 o
  -5   5  -3   1702.00   3007.70    746.10   20%1 o
  -2  -8  -2   6071.50  13939.30   1430.50   20%1 o
  -2  -7  -2  82164.00  77681.20   2347.40   20%1 o
  -3   1  -2  12263.00  12203.80   1950.90   20%1 o
  -4   7  -2   7925.30  11767.90   1254.60   20%1 o
  -4   8  -2     57.30   1467.20    676.40   20%1 <
  -2   4  -1  42378.00  39458.30   2941.20   20%1 o
  -3  10  -1  13168.00   5628.50    769.80   20%1 o
   2  -5   1  18476.00  21038.00   2366.00   20%1 o
   3  -2   2  53876.00  60105.90   2633.10   20%1 o
   3  -1   2   4980.40  10026.50   2141.90   20%1 o
   2   6   2  25104.00  47115.00   2075.60   20%1 o
   5  -8   3    276.53   3118.40    545.20   20%1 o
   5  -7   3   4685.90   5980.60    774.40   20%1 o
   4   1   3  27014.00  23804.90   1548.90   20%1 o
   4   2   3  46869.00  32130.40   1862.20   20%1 o
   3   8   3   9610.10   9196.90   1176.50   20%1 o
   6  -6   4   1079.00    360.20    346.50   20%1 <
   6  -5   4    667.53   2619.70    572.90   20%1 o
   6  -4   4  11628.00  16761.30   1092.20   20%1 o
   6  -3   4   7580.70   9151.20    997.90   20%1 o
   5   3   4   4613.20   2230.80    782.40   20%1 <
   5   4   4   1614.30   1924.00    790.60   20%1 <
   7  -2   5   1317.90    933.50    402.70   20%1 <
   7  -1   5   4334.90   4214.70    622.20   20%1 o
   7   0   5   2468.00   3051.30    542.80   20%1 o
   6   5   5   3092.60   1706.60    453.30   20%1 o
   6   6   5   3599.90   1286.10    420.00   20%1 o
  -7  -2  -5    712.93   1477.70    332.20   21%1 o
  -7  -1  -5   2492.40   2701.20    435.70   21%1 o
  -7   0  -5   2833.70   4348.20    579.10   21%1 o
  -7   1  -5   2836.50   5964.20    586.50   21%1 o
  -5  -6  -4   1399.00   2921.60    759.10   21%1 o
  -5  -5  -4  13975.00  13307.80   1134.00   21%1 o
  -5  -4  -4   1425.90   3034.60    792.20   21%1 o
  -6   2  -4   9737.20   7663.90   1027.40   21%1 o
  -6   3  -4   3824.60   7739.50    844.90   21%1 o
  -6   4  -4   9048.00  17495.90   1091.60   21%1 o
  -3 -10  -3   1281.40   5907.40    639.60   21%1 o
  -4  -2  -3  43758.00  39573.80   1839.40   21%1 o
  -4  -1  -3  29709.00  23897.90   1489.20   21%1 o
  -5   5  -3   1925.40   3007.70    746.10   21%1 o
  -5   6  -3   4445.00   5378.70    816.90   21%1 o
  -2  -7  -2  74835.00  77681.20   2347.40   21%1 o
  -3   2  -2  48252.00  46641.50   2465.20   21%1 o
  -4   8  -2     95.47   1467.20    676.40   21%1 <
  -4   9  -2   2189.00   2738.30    520.30   21%1 o
  -2   5  -1  23575.00  36013.60   2412.90   21%1 o
   2  -6   1 100970.00  96000.10   2814.90   21%1 o
   3  -3   2  35312.00  29196.50   2096.20   21%1 o
   3  -2   2  48193.00  60105.90   2633.10   21%1 o
   2   5   2   9925.80  13118.30   1893.40   21%1 o
   4  -1   3   1800.30   6013.20   1175.30   21%1 o
   3   7   3  78406.00  61146.40   2162.00   21%1 o
   3   8   3   8153.70   9196.90   1176.50   21%1 o
   6  -6   4    910.91    360.20    346.50   21%1 <
   6  -5   4    493.28   2619.70    572.90   21%1 o
   5   1   4   1283.00   3635.50    807.50   21%1 o
   5   2   4   1233.30    387.40    770.10   21%1 <
   5   3   4   4239.40   2230.80    782.40   21%1 <
   4   9   4   4557.30   2421.30    455.90   21%1 o
   7  -2   5   1490.60    933.50    402.70   21%1 <
   6   3   5   6999.90   6628.60    772.60   21%1 o
   6   4   5    616.62   1382.90    470.80   21%1 <
   6   5   5   2810.90   1706.60    453.30   21%1 o
  -6  -6  -5   2239.00    398.80    346.00   22%1 <
  -6  -5  -5   1585.60   1822.90    422.80   22%1 o
  -6  -4  -5    413.97    524.00    450.50   22%1 <
  -6  -3  -5   6197.50   5448.80    717.20   22%1 o
  -7   2  -5    791.84    423.00    303.60   22%1 <
  -5  -2  -4   1201.00   3740.60    781.00   22%1 o
  -5  -1  -4   1588.40   3238.20    799.10   22%1 o
  -6   5  -4   1877.10   1909.70    499.40   22%1 o
  -6   6  -4    229.17    293.00    307.00   22%1 <
  -3  -9  -3  11563.00  14381.40   1047.10   22%1 o
  -3  -8  -3   6366.40   9298.80   1098.20   22%1 o
  -3  -7  -3  80532.00  75414.20   2244.40   22%1 o
  -4   1  -3   1842.20   4884.00   1108.70   22%1 o
  -4   2  -3  49513.00  57440.10   2031.80   22%1 o
  -5   8  -3    104.83    176.70    359.50   22%1 <
  -2  -5  -2  17406.00  16521.70   1845.20   22%1 o
  -3   3  -2  22988.00  28142.50   2147.20   22%1 o
  -3   4  -2  19320.00  19237.40   1517.60   22%1 o
   2  -7   1  77042.00  63075.90   2239.80   22%1 o
   1   2   1  56397.00  21153.20   4815.80   22%1 o
   3  -5   2  10517.00  12441.50   1321.90   22%1 o
   3  -4   2  12605.00  17672.60   1819.20   22%1 o
   2   4   2   9415.70   9536.10   2395.50   22%1 o
   1  11   2    496.71    736.70    546.70   22%1 <
   4  -4   3  18780.00  18636.10   1270.20   22%1 o
   4  -3   3    381.45    141.40   1007.70   22%1 <
   4  -2   3  50298.00  49592.90   1973.30   22%1 o
   3   5   3   8085.20  10456.50   1100.60   22%1 o
   3   6   3  37778.00  36500.30   1707.90   22%1 o
   5  -2   4    510.00   1787.80    692.60   22%1 <
   5  -1   4    923.51   2857.30    761.40   22%1 o
   4   6   4   1174.00   2032.90    768.90   22%1 <
   4   7   4  16414.00  18871.00   1221.60   22%1 o
   4   8   4   5691.20   4552.50    665.20   22%1 o
   6  -1   5   1081.70   1385.50    596.20   22%1 <
   6   1   5   1077.70    914.70    563.20   22%1 <
   6   2   5   1100.60   2051.70    653.80   22%1 o
   6  -5   5   2465.50   1225.00    389.30   23%1 o
   6  -4   5    329.61    949.00    408.60   23%1 <
   6  -3   5   7719.80   9561.20    838.60   23%1 o
   5   5   5   3334.70   2361.80    646.60   23%1 o
   5   6   5   3938.60   4251.80    604.60   23%1 o
   6   5   6   4978.80   4466.60    567.80   23%1 o
  -6  -1  -5    969.22   1043.60    568.30   23%1 <
  -4  -9  -4   7625.20   5737.90    682.20   23%1 o
  -4  -8  -4   5235.30   3022.90    650.80   23%1 o
  -4  -7  -4  15856.00  18365.60   1233.20   23%1 o
  -5   1  -4   1635.10   1837.20    625.50   23%1 <
  -5   2  -4    585.30   3232.60    692.80   23%1 o
  -3  -6  -3  34361.00  42936.80   1773.40   23%1 o
  -3  -5  -3   7792.60  11981.30   1162.00   23%1 o
  -4   3  -3    502.04   -678.80    877.00   23%1 <
  -4   4  -3  21046.00  18908.90   1271.30   23%1 o
  -2  -3  -2  26983.00  27099.50   2529.60   23%1 o
  -3   5  -2  11220.00   9594.20   1173.10   23%1 o
   2  -9   1  13425.00  16417.60   1587.90   23%1 o
   3  -8   2    116.06    614.70    875.40   23%1 <
   3  -7   2  26728.00  26933.60   1471.80   23%1 o
   2   2   2 251870.00 225058.00   4279.20   23%1 o
   2   3   2  28033.00  22901.90   2538.00   23%1 o
   1  10   2  17143.00  16385.80   1258.00   23%1 o
   4  -7   3    121.18    265.20    757.80   23%1 <
   4  -6   3    175.63    918.60    656.00   23%1 <
   4  -5   3    601.10   2054.80    748.50   23%1 <
   3   4   3  29547.00  24272.70   1553.70   23%1 o
   5  -6   4   1522.50    930.20    578.50   23%1 <
   5  -5   4   5472.70  10262.80    951.50   23%1 o
   5  -4   4   1806.10   2774.00    744.40   23%1 o
   5  -3   4   3940.30   2672.90    815.50   23%1 o
   4   5   4  10224.00  15713.50   1129.90   23%1 o
   6  -2   5   1721.50   1021.00    554.20   23%1 <
  -6   1  -5    738.96    985.40    492.80   23%1 <
  -4  -6  -4   1205.70    758.80    737.00   23%1 <
  -5   3  -4   5332.70   4378.70    760.50   23%1 o
   3   3   3   3024.90   5202.10   1356.30   23%1 o
   4   4   4   6084.40   8214.80    909.50   23%1 o
   6  -6   5   2311.20   1176.40    337.60   24%1 o
   6  -5   5   2342.30   1225.00    389.30   24%1 o
   6  -4   5    227.43    949.00    408.60   24%1 <
   6  -3   5   8402.60   9561.20    838.60   24%1 o
   5   4   5   1672.20   4323.90    758.90   24%1 o
   5   5   5   3418.50   2361.80    646.60   24%1 o
   5   6   5   4095.50   4251.80    604.60   24%1 o
   6   4   6   2099.60   2254.50    440.00   24%1 o
   6   5   6   4823.60   4466.60    567.80   24%1 o
  -6   2  -5   1466.90   2344.10    550.80   24%1 o
  -4  -8  -4   4640.70   3022.90    650.80   24%1 o
  -4  -7  -4  16154.00  18365.60   1233.20   24%1 o
  -4  -6  -4   1056.40    758.80    737.00   24%1 <
  -5   3  -4   4398.10   4378.70    760.50   24%1 o
  -5   4  -4   2498.30   4749.70    743.70   24%1 o
  -3  -5  -3   8359.60  11981.30   1162.00   24%1 o
  -3  -4  -3  26449.00  20246.40   1477.30   24%1 o
  -4   4  -3  15825.00  18908.90   1271.30   24%1 o
  -4   5  -3   1206.80   4541.60    753.60   24%1 o
  -2  -3  -2  29471.00  27099.50   2529.60   24%1 o
  -3   6  -2  13983.00  17212.50   1193.20   24%1 o
  -2   7  -1  90238.00  85912.80   2440.20   24%1 o
   2 -10   1    270.45   1969.20    713.90   24%1 <
   3  -9   2    207.91   1792.90    693.40   24%1 <
   3  -8   2    127.60    614.70    875.40   24%1 <
   2   2   2 254130.00 225058.00   4279.20   24%1 o
   1  10   2  14992.00  16385.80   1258.00   24%1 o
   4  -8   3   5084.90   5094.00    703.30   24%1 o
   4  -7   3    160.06    265.20    757.80   24%1 <
   4  -6   3     68.31    918.60    656.00   24%1 <
   3   3   3   3890.70   5202.10   1356.30   24%1 o
   3   4   3  28830.00  24272.70   1553.70   24%1 o
   5  -7   4   4739.00   5215.50    619.30   24%1 o
   5  -6   4   1564.10    930.20    578.50   24%1 <
   5  -5   4   6496.40  10262.80    951.50   24%1 o
   4   4   4   5537.70   8214.80    909.50   24%1 o
  -6   1  -5   1101.20    985.40    492.80   24%1 <
  -5   2  -4    680.19   3232.60    692.80   24%1 o
   4   5   4  10860.00  15713.50   1129.90   24%1 o
   6  -6   5   2244.30   1176.40    337.60   25%1 o
   6  -5   5   2429.90   1225.00    389.30   25%1 o
   5   2   5   7783.70  10447.90    940.60   25%1 o
   5   3   5   2074.20   2476.70    715.20   25%1 o
   5   4   5   1784.80   4323.90    758.90   25%1 o
   6   2   6    639.00    415.90    334.40   25%1 <
   6   3   6   2554.00   2074.90    464.50   25%1 o
   6   4   6   2193.20   2254.50    440.00   25%1 o
   6   5   6   4863.40   4466.60    567.80   25%1 o
  -5  -7  -5    185.58    848.30    357.00   25%1 <
  -5  -6  -5   4679.20   5688.00    674.10   25%1 o
  -5  -5  -5   3106.20   2321.30    637.40   25%1 o
  -6   2  -5   1191.50   2344.10    550.80   25%1 o
  -6   3  -5   6457.90   9034.50    821.60   25%1 o
  -6   4  -5    233.65    709.00    315.00   25%1 <
  -4  -6  -4   1137.10    758.80    737.00   25%1 <
  -4  -5  -4   9628.80  13795.60   1087.30   25%1 o
  -4  -4  -4   5051.30   6731.60    850.70   25%1 o
  -5   3  -4   5674.50   4378.70    760.50   25%1 o
  -5   4  -4   3573.20   4749.70    743.70   25%1 o
  -5   5  -4   5566.00   4778.20    800.60   25%1 o
  -3  -4  -3  26544.00  20246.40   1477.30   25%1 o
  -3  -3  -3   2940.50   4625.80   1519.80   25%1 o
  -4   5  -3   1137.80   4541.60    753.60   25%1 o
  -4   6  -3    109.91   1292.40    657.30   25%1 <
  -2  -2  -2 249060.00 246174.00   4467.80   25%1 o
  -3   6  -2  12328.00  17212.50   1193.20   25%1 o
  -1  -1  -1 167800.00 166793.00   6238.30   25%1 o
  -2   7  -1  85750.00  85912.80   2440.20   25%1 o
   2 -10   1    601.16   1969.20    713.90   25%1 <
   3 -10   2   1393.10   1013.80    477.60   25%1 <
   3  -9   2    243.93   1792.90    693.40   25%1 <
   3  -8   2    116.55    614.70    875.40   25%1 <
   2   2   2 255580.00 225058.00   4279.20   25%1 o
   4  -9   3    379.47    163.40    344.90   25%1 <
   4  -8   3   4013.70   5094.00    703.30   25%1 o
   4  -7   3    193.59    265.20    757.80   25%1 <
   3   2   3   5116.00   2828.90   1736.80   25%1 <
   3   3   3   2982.50   5202.10   1356.30   25%1 o
   2  10   3  15735.00  15803.00    981.20   25%1 o
   5  -8   4    518.08    357.20    280.90   25%1 <
   5  -7   4   4890.70   5215.50    619.30   25%1 o
   5  -6   4   1446.20    930.20    578.50   25%1 <
   4   2   4   1046.70    843.80    817.00   25%1 <
   4   3   4    990.92   1273.50    821.80   25%1 <
   3  10   4   6037.60   5484.80    598.00   25%1 o
   5   0   5   4175.20   1072.20    760.70   26%1 <
   5   1   5   1551.70    622.40    676.90   26%1 <
   4   9   5   1953.40   1686.30    357.70   26%1 o
   6   0   6   5028.50   6738.70    747.80   26%1 o
   6   1   6     61.76   -223.00    372.30   26%1 <
  -6  -5  -6   4891.40   5998.20    586.50   26%1 o
  -6  -4  -6   1943.80   2247.80    417.10   26%1 o
  -6  -3  -6   2174.50   1756.00    438.80   26%1 o
  -6  -2  -6    623.87    715.10    379.80   26%1 <
  -5  -4  -5   1320.00   2863.30    769.60   26%1 o
  -5  -3  -5   2500.90   2932.10    689.30   26%1 o
  -5  -2  -5   7221.60   8061.20    859.30   26%1 o
  -6   5  -5   2530.10   1466.00    356.80   26%1 o
  -6   6  -5   3609.30   1132.70    314.90   26%1 o
  -4  -3  -4   1562.00   2293.70    751.20   26%1 o
  -4  -2  -4   1556.50   3145.20    756.90   26%1 o
  -4  -1  -4    301.55   1747.70    785.80   26%1 <
  -5   6  -4   1377.20   1994.60    544.10   26%1 o
  -5   7  -4   3673.10   2111.90    478.90   26%1 o
  -5   8  -4    307.82    597.40    276.50   26%1 <
  -3  -2  -3   5013.40   6448.50   1729.30   26%1 o
  -3  -1  -3  74325.00  79801.20   2751.40   26%1 o
  -4   7  -3     64.41    705.80    648.40   26%1 <
  -4   8  -3   3894.50   5127.80    646.40   26%1 o
  -2  -1  -2   6567.70   9895.80   2925.60   26%1 o
  -3   8  -2     66.68   1735.00    764.10   26%1 <
   2   0   2 110140.00  85257.50   3521.80   26%1 o
   2   1   2   6255.40   7760.20   2675.70   26%1 <
   3   0   3   6080.10  12846.10   1959.20   26%1 o
   3   1   3  76534.00  73963.30   2723.80   26%1 o
   2   9   3  12917.00  13109.00   1075.60   26%1 o
   2  10   3  15768.00  15803.00    981.20   26%1 o
   4   0   4   2696.00   6455.40   1026.30   26%1 o
   4   1   4    288.35    248.70    811.20   26%1 <
   3   9   4  26986.00  32479.50   1325.20   26%1 o
   3  10   4   5658.20   5484.80    598.00   26%1 o
   5  -1   5   1527.90    484.30    657.60   26%1 <
   6  -1   6     53.47    266.30    378.80   26%1 <
  -6  -5  -6   4805.10   5998.20    586.50   27%1 o
  -6  -4  -6   1899.00   2247.80    417.10   27%1 o
  -6  -3  -6   2150.90   1756.00    438.80   27%1 o
  -6  -2  -6    624.13    715.10    379.80   27%1 <
  -5  -4  -5   1269.40   2863.30    769.60   27%1 o
  -5  -3  -5   2436.20   2932.10    689.30   27%1 o
  -5  -2  -5   7148.90   8061.20    859.30   27%1 o
  -5  -1  -5   1330.90   2952.70    598.20   27%1 o
  -6   6  -5   3535.90   1132.70    314.90   27%1 o
  -4  -3  -4   1548.50   2293.70    751.20   27%1 o
  -4  -2  -4   1494.00   3145.20    756.90   27%1 o
  -4  -1  -4    375.34   1747.70    785.80   27%1 <
  -5   7  -4   3626.50   2111.90    478.90   27%1 o
  -5   8  -4    329.59    597.40    276.50   27%1 <
  -3  -2  -3   4890.00   6448.50   1729.30   27%1 o
  -3  -1  -3  74466.00  79801.20   2751.40   27%1 o
  -4   8  -3   3833.40   5127.80    646.40   27%1 o
  -2  -1  -2   6386.00   9895.80   2925.60   27%1 o
  -2   0  -2 105430.00  88899.00   3692.10   27%1 o
  -3   8  -2     72.15   1735.00    764.10   27%1 <
  -3   9  -2   1373.00    679.50    517.60   27%1 <
  -2   9  -1  12951.00  15705.00   1272.90   27%1 o
   2   0   2 107980.00  85257.50   3521.80   27%1 o
   1   9   2  21441.00  23131.10   1526.60   27%1 o
   3   0   3   6327.70  12846.10   1959.20   27%1 o
   3   1   3  74212.00  73963.30   2723.80   27%1 o
   2   9   3  12122.00  13109.00   1075.60   27%1 o
   4  -1   4    339.91    155.10    770.80   27%1 <
   4   0   4   2725.30   6455.40   1026.30   27%1 o
   4   1   4    255.86    248.70    811.20   27%1 <
   3   9   4  26822.00  32479.50   1325.20   27%1 o
   3  10   4   5777.40   5484.80    598.00   27%1 o
   5  -1   5   1535.20    484.30    657.60   27%1 <
   5   0   5   4059.10   1072.20    760.70   27%1 <
   5   1   5   1549.00    622.40    676.90   27%1 <
   4   8   5   4726.00   4449.10    544.70   27%1 o
   4   9   5   1998.80   1686.30    357.70   27%1 o
   6  -2   6    639.80    135.20    379.80   27%1 <
   6  -1   6     62.10    266.30    378.80   27%1 <
   6   0   6   4961.50   6738.70    747.80   27%1 o
   6   1   6     57.89   -223.00    372.30   27%1 <
  -6  -1  -6     68.59    -96.40    385.70   28%1 <
  -6   0  -6   4490.30   7996.80    702.60   28%1 o
  -6   1  -6     46.24    774.20    381.50   28%1 <
  -5   0  -5   3908.80   2095.30    577.80   28%1 o
  -5   1  -5   1438.40   2143.90    615.60   28%1 o
  -4   0  -4   2959.30   6998.30    905.60   28%1 o
  -4   1  -4    247.49   -326.20    813.40   28%1 <
  -3   0  -3   6035.70   7227.80   1914.60   28%1 o
  -3   1  -3  78783.00  76565.40   2573.80   28%1 o
  -4   9  -3    805.12    135.50    286.50   28%1 <
  -2   0  -2 112880.00  88899.00   3692.10   28%1 o
  -2   1  -2   5652.80   4506.00   2674.90   28%1 <
  -3   9  -2   1456.50    679.50    517.60   28%1 <
   2  -1   2   5719.20   2533.60   2840.30   28%1 <
   3  -2   3   5412.00   2454.00   1705.50   28%1 <
   3  -1   3  80234.00  77742.30   2794.20   28%1 o
   2   8   3   4774.70   6083.00    914.90   28%1 o
   4  -3   4   1529.30   2146.10    755.60   28%1 <
   4  -2   4   1475.80   1801.90    821.20   28%1 <
   3   7   4   3131.10   2561.60    766.80   28%1 o
   3   8   4   9327.20  11776.00    990.20   28%1 o
   5  -5   5   3472.30   3547.00    672.40   28%1 o
   5  -4   5   1568.20   1504.80    692.80   28%1 <
   5  -3   5   2749.40   2744.80    671.00   28%1 o
   5  -2   5   8107.80  10476.10    917.40   28%1 o
   4   6   5   7997.20  12610.40    982.80   28%1 o
   4   7   5   9575.90   9194.20    883.00   28%1 o
   4   8   5   5138.10   4449.10    544.70   28%1 o
   6  -5   6   5215.70   5474.70    566.40   28%1 o
   6  -4   6   2110.00   2352.50    431.60   28%1 o
   6  -3   6   2334.50   3476.10    484.20   28%1 o
   5   5   6   1378.00   1758.10    450.20   28%1 o
   5   6   6    538.68    373.20    324.40   28%1 <
   5   7   6   4359.90   3593.10    480.80   28%1 o
  -6   2  -6    619.39    161.80    313.10   28%1 <
  -5   2  -5   8117.90   7584.90    854.30   28%1 o
   6   4   7    375.58    449.20    242.80   28%1 <
  -6   1  -6     45.11    774.20    381.50   29%1 <
  -6   2  -6    655.48    161.80    313.10   29%1 <
  -6   3  -6   2440.10   2440.30    424.80   29%1 o
  -4  -9  -5   2928.80   1614.90    347.10   29%1 o
  -5   1  -5   1481.10   2143.90    615.60   29%1 o
  -5   2  -5   8234.30   7584.90    854.30   29%1 o
  -5   3  -5   2393.00   2856.80    631.30   29%1 o
  -3 -10  -4   5435.60   7169.20    637.40   29%1 o
  -4   1  -4    261.40   -326.20    813.40   29%1 <
  -4   2  -4   1456.50    959.80    685.60   29%1 <
  -3   1  -3  80138.00  76565.40   2573.80   29%1 o
  -3   2  -3   5205.90   4790.50   1478.00   29%1 o
  -2   1  -2   5731.90   4506.00   2674.90   29%1 <
  -3  10  -2   1212.00    602.50    363.60   29%1 <
   2  -2   2 275170.00 253353.00   4407.50   29%1 o
   2  -1   2   5917.50   2533.60   2840.30   29%1 <
   3  -3   3   3462.80  13496.50   1525.30   29%1 o
   3  -2   3   5542.90   2454.00   1705.50   29%1 <
   2   8   3   4773.70   6083.00    914.90   29%1 o
   4  -4   4   5314.30  10045.80    913.20   29%1 o
   4  -3   4   1518.00   2146.10    755.60   29%1 <
   3   7   4   3182.50   2561.60    766.80   29%1 o
   5  -6   5   5068.50   4722.10    612.80   29%1 o
   5  -5   5   3547.60   3547.00    672.40   29%1 o
   5  -4   5   1477.60   1504.80    692.80   29%1 <
   4   5   5   5697.80   5304.00    791.90   29%1 o
   4   6   5   8216.90  12610.40    982.80   29%1 o
   4   7   5   9769.60   9194.20    883.00   29%1 o
   6  -5   6   5324.40   5474.70    566.40   29%1 o
   5   4   6   1419.60   3412.00    667.20   29%1 o
   5   5   6   1430.00   1758.10    450.20   29%1 o
   5   6   6    604.23    373.20    324.40   29%1 <
   6   3   7   1208.70    646.80    308.40   29%1 <
   6   4   7    503.17    449.20    242.80   29%1 <
  -6  -4  -7    591.30    865.80    279.20   30%1 o
  -5  -7  -6   3684.90   4442.80    520.60   30%1 o
  -5  -6  -6    648.64   1005.30    337.70   30%1 <
  -5  -5  -6   1333.00   1791.00    454.60   30%1 o
  -6   3  -6   2669.80   2440.30    424.80   30%1 o
  -6   4  -6   2370.70   1747.20    374.30   30%1 o
  -6   5  -6   5187.60   6207.30    556.90   30%1 o
  -4  -8  -5   5054.60   5682.80    580.10   30%1 o
  -4  -7  -5   9751.80  10202.30    853.50   30%1 o
  -4  -6  -5   7310.10   9553.40    845.20   30%1 o
  -5   3  -5   2530.20   2856.80    631.30   30%1 o
  -5   4  -5   1763.00   2987.70    673.50   30%1 o
  -5   5  -5   3288.80   2051.20    499.50   30%1 o
  -3  -9  -4  29393.00  30552.60   1268.30   30%1 o
  -3  -8  -4  11991.00   9950.20    922.30   30%1 o
  -3  -7  -4   2561.80   4402.60    772.70   30%1 o
  -4   3  -4   1443.10   2473.00    710.80   30%1 o
  -4   4  -4   6188.60   8198.60    761.70   30%1 o
  -2 -10  -3  17038.00  20360.20   1054.70   30%1 o
  -2  -9  -3   9040.70  11383.00   1034.70   30%1 o
  -3   2  -3   5502.30   4790.50   1478.00   30%1 o
  -3   3  -3   3757.60   6616.80   1370.70   30%1 o
  -1 -11  -2    944.89   2464.70    537.80   30%1 o
  -1 -10  -2  16900.00  17845.10   1228.50   30%1 o
  -2   2  -2 285870.00 266551.00   4444.80   30%1 o
  -1   1  -1 195680.00 214321.00   6359.50   30%1 o
  -2  10  -1    407.86    690.80    549.70   30%1 <
   2  -3   2  32972.00  32870.30   2641.60   30%1 o
   2  -2   2 291160.00 253353.00   4407.50   30%1 o
   3  -4   3  31418.00  24411.60   1502.00   30%1 o
   3  -3   3   3540.00  13496.50   1525.30   30%1 o
   2   6   3  33051.00  29700.30   1458.90   30%1 o
   2   7   3   1237.90   2449.40    760.90   30%1 o
   4  -7   4  19718.00  22273.50   1262.00   30%1 o
   4  -6   4   1464.50    110.30    685.40   30%1 <
   4  -5   4  10788.00  15693.00   1127.60   30%1 o
   3   5   4    490.46    793.80    685.20   30%1 <
   3   6   4  18139.00  18789.70   1224.80   30%1 o
   5  -7   5    190.40     29.20    285.00   30%1 <
   5  -6   5   5431.40   4722.10    612.80   30%1 o
   4   4   5   1881.60   2676.40    653.00   30%1 o
   4   5   5   6372.40   5304.00    791.90   30%1 o
   5   2   6    337.19   1028.30    551.00   30%1 <
   5   3   6   9337.90   8474.30    856.00   30%1 o
   5   4   6   1022.50   3412.00    667.20   30%1 o
   6   1   7   1332.00   1206.40    354.50   30%1 o
   6   2   7   2327.80   3893.30    507.90   30%1 o
   6   3   7   1007.70    646.80    308.40   30%1 <
  -6  -4  -7    618.37    865.80    279.20   31%1 o
  -6  -3  -7   1393.80   1577.90    310.70   31%1 o
  -6  -2  -7   2149.70   2354.80    428.80   31%1 o
  -5  -5  -6   1148.00   1791.00    454.60   31%1 o
  -5  -4  -6   2035.70   3156.60    611.20   31%1 o
  -5  -3  -6   8763.50   8285.70    876.40   31%1 o
  -6   5  -6   5215.20   6207.30    556.90   31%1 o
  -4  -6  -5   6435.60   9553.40    845.20   31%1 o
  -4  -5  -5   7077.00   7478.20    859.40   31%1 o
  -4  -4  -5   1260.90   1640.90    598.00   31%1 <
  -5   4  -5   2120.60   2987.70    673.50   31%1 o
  -5   5  -5   3564.90   2051.20    499.50   31%1 o
  -5   6  -5   4797.30   2623.90    454.70   31%1 o
  -3  -7  -4   3172.70   4402.60    772.70   31%1 o
  -3  -6  -4  14458.00  19813.40   1155.40   31%1 o
  -3  -5  -4    855.33   1594.30    639.60   31%1 <
  -4   4  -4   5885.10   8198.60    761.70   31%1 o
  -4   5  -4  11957.00  16823.80   1025.60   31%1 o
  -2  -8  -3   4433.20   5495.60    980.90   31%1 o
  -2  -7  -3   1906.80   1582.30    699.30   31%1 <
  -3   3  -3   2853.40   6616.80   1370.70   31%1 o
  -3   4  -3  29064.00  22284.70   1348.90   31%1 o
  -1  -9  -2  21981.00  26509.30   1528.10   31%1 o
  -2   2  -2 287840.00 266551.00   4444.80   31%1 o
  -2  10  -1    794.72    690.80    549.70   31%1 <
   2  -3   2  34611.00  32870.30   2641.60   31%1 o
   1   7   2  10792.00  10264.70   1215.40   31%1 o
   3  -5   3  10853.00   9541.80   1132.90   31%1 o
   3  -4   3  30172.00  24411.60   1502.00   31%1 o
   2   5   3  83399.00  84775.40   2433.80   31%1 o
   2   6   3  31413.00  29700.30   1458.90   31%1 o
   4  -8   4   5905.00   5742.00    633.30   31%1 o
   4  -7   4  19426.00  22273.50   1262.00   31%1 o
   4  -6   4   1800.00    110.30    685.40   31%1 <
   3   4   4    887.75    685.50    777.40   31%1 <
   3   5   4    663.06    793.80    685.20   31%1 <
   4   2   5   8984.30   7600.00    846.00   31%1 o
   4   3   5  21028.00  24474.60   1223.30   31%1 o
   5   1   6     44.92   -278.80    509.40   31%1 <
   5   2   6    590.02   1028.30    551.00   31%1 <
   6  -2   7   2259.00   2439.00    406.60   31%1 o
   6  -1   7   1343.80   1312.10    335.00   31%1 o
  -6  -1  -7   1256.80   1079.10    294.60   31%1 o
  -1  -8  -2   1665.10   8700.20   1136.70   32%1 o
  -2   4  -2   7650.30  13638.30   2266.90   32%1 o
  -2  11  -1   3903.60   3195.60    514.00   32%1 o
   2  -5   2  13207.00  15687.30   1718.90   32%1 o
   2  -4   2   8332.20   4670.00   2215.30   32%1 <
   3  -8   3   8276.90  10032.80   1052.30   32%1 o
   3  -7   3  87335.00  81398.10   2254.10   32%1 o
   2   4   3 160290.00 141901.00   3231.40   32%1 o
   2   5   3  74215.00  84775.40   2433.80   32%1 o
   3   2   4  68698.00  63256.60   2217.70   32%1 o
   3   3   4    861.29   -125.10   1038.50   32%1 <
   4  -1   5   3213.00   3159.60    718.50   32%1 o
   4   1   5    228.88    156.50    595.50   32%1 <
   5  -4   6   1108.60   2447.40    515.70   32%1 o
   5  -3   6   7145.90  10616.80    817.70   32%1 o
   5  -2   6    544.50   2460.00    635.80   32%1 o
   4   7   6   1232.50    972.80    359.00   32%1 <
   4   8   6   3118.00   2357.70    378.20   32%1 o
   6  -4   7    307.68    400.50    234.20   32%1 <
   5   5   7    746.26   1147.30    341.80   32%1 o
   5   6   7   2916.00   2141.70    395.70   32%1 o
   6   2   8    128.80     -6.60    210.20   32%1 <
   6   3   8    309.40    424.90    216.70   32%1 <
  -6   1  -7   1295.70   1372.20    339.20   32%1 o
  -5  -1  -6     86.13    991.80    462.90   32%1 <
  -4  -3  -5  18166.00  23883.20   1197.10   32%1 o
  -4  -2  -5   7384.70   6172.50    776.40   32%1 o
  -5   7  -5    102.12    314.50    267.00   32%1 <
  -3  -4  -4   1005.90   1867.10    623.50   32%1 <
  -3  -3  -4   1069.50    553.00    891.40   32%1 <
  -4   6  -4    981.92    264.50    587.50   32%1 <
  -4   7  -4  15731.00  13497.00   1004.50   32%1 o
  -2  -6  -3  25184.00  30115.90   1501.90   32%1 o
  -2  -5  -3  73515.00  74542.40   2306.90   32%1 o
  -3   5  -3  10057.00  11760.30   1025.10   32%1 o
   5  -1   6    372.62      1.40    526.20   32%1 <
  -6   2  -7   1652.10   2361.50    386.80   32%1 o
  -5   1  -6    287.68    714.10    526.70   32%1 <
  -4  -1  -5    172.90    821.20    549.30   32%1 <
  -1  -8  -2   2498.10   8700.20   1136.70   33%1 o
  -2   4  -2   8754.00  13638.30   2266.90   33%1 o
   2  -5   2  14517.00  15687.30   1718.90   33%1 o
   1   6   2 295280.00 276642.00   4107.70   33%1 o
   3  -9   3  11789.00  13423.60    952.90   33%1 o
   3  -8   3   8239.30  10032.80   1052.30   33%1 o
   2   4   3 153950.00 141901.00   3231.40   33%1 o
   3   1   4  37900.00  41097.10   2039.10   33%1 o
   3   2   4  68492.00  63256.60   2217.70   33%1 o
   4  -2   5   9965.60  10732.80    952.10   33%1 o
   4  -1   5   2711.60   3159.60    718.50   33%1 o
   3   9   5   1191.40   1367.90    350.60   33%1 o
   5  -5   6   3157.20   3257.50    588.80   33%1 o
   5  -4   6    961.75   2447.40    515.70   33%1 o
   5  -3   6   7041.60  10616.80    817.70   33%1 o
   4   7   6   1206.10    972.80    359.00   33%1 <
   4   8   6   3108.20   2357.70    378.20   33%1 o
   5   4   7    338.20    639.40    399.30   33%1 <
   5   5   7    778.23   1147.30    341.80   33%1 o
   5   6   7   2875.20   2141.70    395.70   33%1 o
   6   1   8    124.26    274.30    244.10   33%1 <
   6   2   8    102.96     -6.60    210.20   33%1 <
   6   3   8    431.10    424.90    216.70   33%1 <
  -6   3  -7   1461.30    860.50    278.20   33%1 o
  -6   4  -7    197.99    360.80    211.10   33%1 <
  -5   1  -6    454.32    714.10    526.70   33%1 <
  -5   2  -6    473.13   3135.40    589.70   33%1 o
  -4  -1  -5    131.04    821.20    549.30   33%1 <
  -3  -3  -4   1169.50    553.00    891.40   33%1 <
  -3  -2  -4  65479.00  61256.50   2196.30   33%1 o
  -4   7  -4  15404.00  13497.00   1004.50   33%1 o
  -4   8  -4   5517.80   6363.00    586.20   33%1 o
  -2  -5  -3  72597.00  74542.40   2306.90   33%1 o
  -3   6  -3  37418.00  45279.50   1641.20   33%1 o
  -6   1  -7   1166.40   1372.20    339.20   33%1 o
  -6   2  -7   1824.40   2361.50    386.80   33%1 o
  -4  -2  -5   7070.10   6172.50    776.40   33%1 o
  -2   5  -2   8354.60  13012.00   1540.80   34%1 o
   1   6   2 313000.00 276642.00   4107.70   34%1 o
   3 -10   3   2097.00  10120.80    719.50   34%1 o
   3  -9   3  11590.00  13423.60    952.90   34%1 o
   2   3   3  46227.00  42601.90   2514.90   34%1 o
   2   4   3 160620.00 141901.00   3231.40   34%1 o
   3   1   4  37507.00  41097.10   2039.10   34%1 o
   4  -3   5  14625.00  15441.50    990.80   34%1 o
   4  -2   5   7776.70  10732.80    952.10   34%1 o
   4  -1   5   1185.20   3159.60    718.50   34%1 o
   3   8   5   2812.90   1506.10    496.30   34%1 o
   3   9   5    911.80   1367.90    350.60   34%1 o
   5  -7   6   4623.80   3186.30    429.90   34%1 o
   5  -6   6    516.70   1904.30    360.20   34%1 o
   5  -5   6   3427.00   3257.50    588.80   34%1 o
   5  -4   6    720.23   2447.40    515.70   34%1 o
   4   6   6   4174.00   4282.70    646.80   34%1 o
   4   7   6   1112.60    972.80    359.00   34%1 <
   5   3   7  15802.00  18819.80   1039.10   34%1 o
   5   4   7    691.02    639.40    399.30   34%1 <
   5   5   7    793.16   1147.30    341.80   34%1 o
   6  -1   8     86.82    549.70    284.00   34%1 <
   6   0   8   2271.00   4653.60    532.30   34%1 o
   6   1   8    130.57    274.30    244.10   34%1 <
   6   2   8     99.86     -6.60    210.20   34%1 <
  -5  -6  -7   3130.60   2521.40    392.80   34%1 o
  -6   3  -7   1872.00    860.50    278.20   34%1 o
  -6   4  -7    311.92    360.80    211.10   34%1 <
  -5   1  -6    363.25    714.10    526.70   34%1 <
  -5   2  -6    742.30   3135.40    589.70   34%1 o
  -5   3  -6  12595.00   9722.00    871.60   34%1 o
  -4   1  -5   3092.00   4708.20    720.80   34%1 o
  -3  -3  -4   1794.80    553.00    891.40   34%1 <
  -3  -2  -4  68761.00  61256.50   2196.30   34%1 o
  -3  -1  -4  32181.00  41511.20   1948.70   34%1 o
  -4   8  -4   6022.30   6363.00    586.20   34%1 o
  -4   9  -4   4544.90   1725.50    356.40   34%1 o
  -2  -5  -3  65436.00  74542.40   2306.90   34%1 o
  -2  -4  -3 129860.00 124169.00   3105.00   34%1 o
  -3   6  -3  37889.00  45279.50   1641.20   34%1 o
  -3   7  -3  83743.00  85796.60   2195.20   34%1 o
  -1  -6  -2 256280.00 221715.00   3699.70   35%1 o
  -2   5  -2  10316.00  13012.00   1540.80   35%1 o
   1   5   2  13245.00  20320.40   2397.90   35%1 o
   3 -10   3   1983.40  10120.80    719.50   35%1 o
   3  -9   3  12889.00  13423.60    952.90   35%1 o
   2   3   3  25446.00  42601.90   2514.90   35%1 o
   3  -1   4  45247.00  27681.30   1752.00   35%1 o
   2   9   4    470.76    766.20    479.00   35%1 <
   2  10   4  14041.00  17575.60    923.20   35%1 o
   4  -4   5   7542.60   6812.30    786.40   35%1 o
   4  -3   5  15333.00  15441.50    990.80   35%1 o
   3   7   5  24816.00  35885.20   1502.40   35%1 o
   5  -7   6   4550.60   3186.30    429.90   35%1 o
   5  -6   6    241.97   1904.30    360.20   35%1 o
   4   4   6  17588.00  26236.30   1231.40   35%1 o
   4   5   6   1209.20   1955.30    564.10   35%1 o
   5   1   7   9607.20  10727.80    867.90   35%1 o
   5   2   7    490.19   1739.80    551.70   35%1 o
   5   3   7  13827.00  18819.80   1039.10   35%1 o
   6  -3   8    490.65   1067.90    284.20   35%1 o
   6  -2   8    124.00     77.60    217.90   35%1 <
   6  -1   8    253.32    549.70    284.00   35%1 <
   6   0   8   4611.20   4653.60    532.30   35%1 o
  -6  -3  -8    524.69    547.70    242.40   35%1 <
  -6  -2  -8    105.85    -89.10    205.20   35%1 <
  -6  -1  -8    152.78    -24.00    229.10   35%1 <
  -5  -6  -7   2719.00   2521.40    392.80   35%1 o
  -5  -5  -7    525.84    768.10    307.60   35%1 <
  -5  -4  -7   1024.80   1303.60    402.80   35%1 o
  -4  -8  -6    730.74    610.10    271.20   35%1 <
  -4  -7  -6   2269.90   2962.60    449.50   35%1 o
  -4  -6  -6  14147.00  10127.50    863.60   35%1 o
  -5   3  -6   6534.30   9722.00    871.60   35%1 o
  -5   4  -6   1086.80   1223.10    490.20   35%1 <
  -4   1  -5    372.27   4708.20    720.80   35%1 o
  -4   2  -5   9397.10  10514.60    913.40   35%1 o
  -3  -1  -4  38968.00  41511.20   1948.70   35%1 o
  -4   8  -4   5764.20   6363.00    586.20   35%1 o
  -4   9  -4   3916.90   1725.50    356.40   35%1 o
  -2  -4  -3 157140.00 124169.00   3105.00   35%1 o
  -2  -3  -3  42086.00  53685.60   2548.10   35%1 o
  -3   7  -3  89189.00  85796.60   2195.20   35%1 o
  -6  -1  -8    160.16    -24.00    229.10   36%1 <
  -6   0  -8   5246.40   3861.90    453.50   36%1 o
  -6   1  -8    306.22    470.00    231.30   36%1 <
  -6   2  -8     57.97    -92.60    192.20   36%1 <
  -5  -3  -7  17979.00  17025.10    988.10   36%1 o
  -5  -2  -7   1176.10   1048.70    519.70   36%1 <
  -5  -1  -7   7864.30  11534.30    860.30   36%1 o
  -4  -6  -6  17280.00  10127.50    863.60   36%1 o
  -4  -5  -6    912.29   1945.20    604.50   36%1 o
  -4  -4  -6  17764.00  29492.40   1318.30   36%1 o
  -5   5  -6   1445.70   2336.40    443.80   36%1 o
  -5   6  -6   2509.00   2831.90    438.10   36%1 o
  -3  -9  -5    612.25    883.40    327.80   36%1 <
  -3  -8  -5   1643.80   4608.90    634.50   36%1 o
  -4   3  -5  20096.00  17232.90   1052.70   36%1 o
  -4   4  -5   9760.10  10747.80    846.10   36%1 o
  -3   1  -4  52847.00  34945.40   1856.90   36%1 o
  -2  -2  -3  37883.00  45230.60   2380.80   36%1 o
  -3   8  -3  11005.00  15557.80   1029.50   36%1 o
  -2   6  -2  30098.00  69039.40   2095.80   36%1 o
   2  -7   2  74247.00  63844.40   1994.10   36%1 o
   2   1   3   3636.20  11982.30   2053.90   36%1 o
   2   2   3  19062.00  33579.90   2312.20   36%1 o
   1  11   3  10594.00   8274.90    676.00   36%1 o
   3  -2   4  72084.00  58392.50   2084.70   36%1 o
   3  -1   4  48609.00  27681.30   1752.00   36%1 o
   2   8   4  14740.00  15118.50   1048.10   36%1 o
   2   9   4    715.04    766.20    479.00   36%1 <
   4  -7   5   8837.40  10790.30    800.90   36%1 o
   4  -6   5  10345.00  11190.10    889.60   36%1 o
   4  -5   5   3529.80   8283.80    833.10   36%1 o
   3   5   5   3827.80   2433.40    602.90   36%1 o
   3   6   5   8132.80   5090.40    627.10   36%1 o
   4   2   6   2850.70   3063.80    594.60   36%1 o
   4   3   6  14534.00  10071.60    874.20   36%1 o
   5  -2   7    399.08   1067.10    481.20   36%1 <
   5  -1   7    274.86    338.60    444.60   36%1 <
   5   0   7   8731.70  10309.50    860.40   36%1 o
   6  -3   8    799.09   1067.90    284.20   36%1 o
  -6   1  -8    364.92    470.00    231.30   37%1 <
  -6   2  -8    105.32    -92.60    192.20   37%1 <
  -6   3  -8    513.82    687.70    222.80   37%1 o
  -5  -2  -7   1123.90   1048.70    519.70   37%1 <
  -5  -1  -7  10303.00  11534.30    860.30   37%1 o
  -5   0  -7   8621.30  10265.30    779.30   37%1 o
  -4  -5  -6    761.72   1945.20    604.50   37%1 o
  -4  -4  -6  20516.00  29492.40   1318.30   37%1 o
  -4  -3  -6   7677.00  12503.40    858.20   37%1 o
  -5   6  -6   3096.50   2831.90    438.10   37%1 o
  -5   7  -6   5657.80   3107.40    411.30   37%1 o
  -3  -8  -5   2104.20   4608.90    634.50   37%1 o
  -3  -7  -5  31975.00  39682.10   1533.80   37%1 o
  -4   4  -5  10080.00  10747.80    846.10   37%1 o
  -4   5  -5  25338.00  22409.80   1163.70   37%1 o
  -3   1  -4  57816.00  34945.40   1856.90   37%1 o
  -3   2  -4  65861.00  53326.30   2009.90   37%1 o
  -2  -2  -3  34008.00  45230.60   2380.80   37%1 o
  -2  -1  -3   3348.50  10764.80   1932.00   37%1 o
  -3   8  -3  12167.00  15557.80   1029.50   37%1 o
  -3   9  -3  16569.00  13795.50    879.90   37%1 o
  -1  -5  -2  16886.00  25932.60   2482.40   37%1 o
  -2   6  -2  35756.00  69039.40   2095.80   37%1 o
   2  -8   2   6806.60  14916.10   1147.70   37%1 o
   2  -7   2  80705.00  63844.40   1994.10   37%1 o
   2   1   3   4763.20  11982.30   2053.90   37%1 o
   1  11   3   8776.20   8274.90    676.00   37%1 o
   3  -3   4   3719.30   3846.40    925.10   37%1 o
   3  -2   4  78240.00  58392.50   2084.70   37%1 o
   2   8   4  15572.00  15118.50   1048.10   37%1 o
   4  -8   5   5990.60   3365.80    444.10   37%1 o
   4  -7   5   9948.00  10790.30    800.90   37%1 o
   4  -6   5  12180.00  11190.10    889.60   37%1 o
   3   5   5   5118.80   2433.40    602.90   37%1 o
   4   1   6   2405.00   4556.00    625.00   37%1 o
   4   2   6   3390.50   3063.80    594.60   37%1 o
   5  -3   7  19834.00  18559.40   1073.90   37%1 o
   5  -2   7    593.55   1067.10    481.20   37%1 <
   5  -1   7    349.04    338.60    444.60   37%1 <
   4   8   7   1162.80    -81.20    229.70   37%1 <
   5   5   8    215.64    267.70    182.50   37%1 <
  -5  -5  -8    153.13    -22.40    189.10   38%1 <
  -5   1  -7    230.95   -216.10    411.40   38%1 <
  -5   2  -7    718.44    747.90    365.40   38%1 <
  -5   3  -7  19234.00  19647.80   1065.80   38%1 o
  -4  -2  -6   2674.60   2427.50    572.80   38%1 o
  -4  -1  -6   1087.60   2075.70    515.30   38%1 o
  -3  -6  -5   4598.60   2935.00    556.80   38%1 o
  -3  -5  -5   2803.30   1160.20    476.20   38%1 <
  -3  -4  -5    544.89   2245.30    544.70   38%1 o
  -4   6  -5   9357.50   7355.20    724.00   38%1 o
  -4   7  -5  10051.00   5073.20    560.30   38%1 o
  -2 -10  -4  17192.00  19845.20    977.10   38%1 o
  -2  -9  -4    365.13    729.00    508.20   38%1 <
  -3   3  -4   3173.50   3815.10    972.60   38%1 o
  -3   4  -4    711.06   1161.90    641.00   38%1 <
  -3  10  -3   3712.40  10270.10    695.40   38%1 o
  -2   7  -2  51086.00  58803.50   1853.80   38%1 o
   2 -10   2   1740.20    567.10    437.60   38%1 <
   2  -9   2   2811.90   3319.20    785.20   38%1 o
   1   4   2  33277.00  24297.20   2526.70   38%1 o
   3  -5   4    486.83    613.00    552.60   38%1 <
   3  -4   4    802.63   1220.00    641.40   38%1 <
   2   7   4  62027.00  49652.30   1683.40   38%1 o
   4  -9   5   3067.00    771.00    286.20   38%1 <
   3   3   5  11351.00   9034.40    934.30   38%1 o
   3   4   5   1106.20   2212.30    518.40   38%1 o
   4  -1   6   1697.60   2175.70    549.60   38%1 o
   4   0   6    659.81    554.60    381.50   38%1 <
   5  -6   7   2831.00   1789.30    351.00   38%1 o
   5  -5   7    317.00     24.10    229.40   38%1 <
   5  -4   7    200.44    858.40    344.20   38%1 <
   4   6   7  24626.00  25241.10   1152.40   38%1 o
   4   7   7    853.54    214.60    220.60   38%1 <
   5   2   8  27780.00  36727.90   1474.00   38%1 o
   5   3   8   6278.80   7473.00    629.00   38%1 o
   5   4   8    866.27    251.40    218.70   38%1 <
  -4   0  -6    551.11    976.60    425.10   38%1 <
   4  -2   6   4139.50   3301.00    596.90   38%1 o
  -5  -5  -8    209.86    -22.40    189.10   39%1 <
  -5  -4  -8    730.07    185.20    207.40   39%1 <
  -4  -8  -7   1398.60    182.80    209.80   39%1 <
  -5   3  -7  18893.00  19647.80   1065.80   39%1 o
  -5   4  -7    474.63      7.40    297.80   39%1 <
  -4  -1  -6   1042.60   2075.70    515.30   39%1 o
  -4   0  -6    564.32    976.60    425.10   39%1 <
  -4   1  -6   2031.10   3018.60    539.60   39%1 o
  -3  -5  -5   2751.30   1160.20    476.20   39%1 <
  -3  -4  -5    491.85   2245.30    544.70   39%1 o
  -3  -3  -5  16109.00  13639.30   1026.50   39%1 o
  -4   7  -5  10013.00   5073.20    560.30   39%1 o
  -4   8  -5   5991.60   1909.00    358.80   39%1 o
  -2 -10  -4  16745.00  19845.20    977.10   39%1 o
  -2  -9  -4    458.33    729.00    508.20   39%1 <
  -3   4  -4    813.82   1161.90    641.00   39%1 <
  -1  -4  -2  32718.00  17850.20   2498.00   39%1 o
   2 -11   2  18299.00  15755.10    881.70   39%1 o
   2 -10   2   1539.50    567.10    437.60   39%1 <
   2  -1   3   1427.40   2022.40   2186.10   39%1 <
   1  10   3  20615.00  24925.20   1136.70   39%1 o
   3  -6   4  17646.00  21983.70   1152.60   39%1 o
   3  -5   4    479.49    613.00    552.60   39%1 <
   2   6   4   4601.40   5561.50    708.80   39%1 o
   2   7   4  61584.00  49652.30   1683.40   39%1 o
   3   2   5   3623.90   4027.20    852.80   39%1 o
   3   3   5   9951.00   9034.40    934.30   39%1 o
   4  -3   6   9995.10  12232.00    873.60   39%1 o
   4  -2   6   3874.00   3301.00    596.90   39%1 o
   4  -1   6   1472.00   2175.70    549.60   39%1 o
   3   9   6  18033.00  23545.20   1058.20   39%1 o
   5  -6   7   2677.70   1789.30    351.00   39%1 o
   4   5   7  10337.00   8060.70    772.90   39%1 o
   4   6   7  24467.00  25241.10   1152.40   39%1 o
   5   1   8    272.43   1415.10    458.00   39%1 o
   5   2   8  26506.00  36727.90   1474.00   39%1 o
  -5  -3  -8   6005.00   7843.20    638.80   39%1 o
  -5   5  -7    320.08    466.00    209.80   39%1 <
  -5  -2  -8  23656.00  37070.40   1412.50   40%1 o
  -5  -1  -8    480.76    629.00    377.00   40%1 <
  -4  -7  -7    669.41    105.50    254.90   40%1 <
  -4  -6  -7  16975.00  22230.90   1048.60   40%1 o
  -4  -5  -7   8862.00   9788.90    790.40   40%1 o
  -5   6  -7   1844.30    963.90    266.50   40%1 o
  -4   2  -6   3584.50   3700.90    615.90   40%1 o
  -4   3  -6   9982.10  18553.30    996.60   40%1 o
  -3  -2  -5   3598.80   1583.70    769.30   40%1 <
  -3  -1  -5 123350.00 110416.00   2623.90   40%1 o
  -4   9  -5   2223.20    434.80    259.70   40%1 <
  -2  -7  -4  61024.00  60390.50   1888.80   40%1 o
  -2  -6  -4   3120.30   3765.10    671.90   40%1 o
  -3   6  -4  14780.00  21725.10   1102.20   40%1 o
  -2   2  -3  59890.00  38171.40   2407.20   40%1 o
  -1  -3  -2   4364.60  15899.90   2944.70   40%1 o
   2  -2   3  63421.00  48270.20   2358.40   40%1 o
   1   9   3  13574.00  10001.50    939.00   40%1 o
   3  -9   4  32789.00  29897.10   1187.40   40%1 o
   3  -8   4  11420.00  13689.70    953.00   40%1 o
   2   5   4  24294.00  22357.60   1306.60   40%1 o
   3   0   5  39098.00  32606.40   1659.10   40%1 o
   3   1   5 127690.00 111743.00   2570.10   40%1 o
   4  -6   6   6757.10   3917.00    624.50   40%1 o
   4  -5   6    925.46   1158.70    587.30   40%1 <
   4  -4   6  30876.00  34954.40   1419.10   40%1 o
   3   7   6   3662.70   4643.30    633.30   40%1 o
   3   8   6   4248.80   2939.60    437.90   40%1 o
   4   3   7   1934.80   3863.70    578.80   40%1 o
   5  -3   8   6460.60   7443.20    671.30   40%1 o
   5  -2   8  27430.00  36320.90   1347.60   40%1 o
   5  -1   8    263.90    922.10    388.40   40%1 <
   5   4   9   1644.10   1428.80    310.50   40%1 o
  -5   1  -8    407.51   1326.30    422.50   40%1 o
  -4  -4  -7   6688.40   4929.50    631.30   40%1 o
  -4   4  -6  27772.00  26786.10   1271.70   40%1 o
   4   2   7  21241.00  25506.60   1190.50   40%1 o
   5  -4   8    623.79    -50.00    257.80   40%1 <
  -5   1  -8    757.17   1326.30    422.50   41%1 o
  -4  -5  -7   7629.20   9788.90    790.40   41%1 o
  -4  -4  -7   6464.70   4929.50    631.30   41%1 o
  -3  -9  -6  16910.00  21466.20   1017.20   41%1 o
  -4   3  -6  14540.00  18553.30    996.60   41%1 o
  -3  -1  -5 121620.00 110416.00   2623.90   41%1 o
  -4   9  -5   2620.30    434.80    259.70   41%1 <
  -2  -6  -4   3798.00   3765.10    671.90   41%1 o
  -3   6  -4  16107.00  21725.10   1102.20   41%1 o
  -2   2  -3  48991.00  38171.40   2407.20   41%1 o
  -1  -3  -2   5488.00  15899.90   2944.70   41%1 o
  -2   8  -2   6763.60   7467.40    822.30   41%1 o
   2 -11   2  18213.00  15755.10    881.70   41%1 o
   2  -2   3  60337.00  48270.20   2358.40   41%1 o
   1   9   3  11533.00  10001.50    939.00   41%1 o
   3  -8   4  11909.00  13689.70    953.00   41%1 o
   3  -7   4   3176.10   4382.40    603.40   41%1 o
   2   5   4  31937.00  22357.60   1306.60   41%1 o
   3   0   5  35075.00  32606.40   1659.10   41%1 o
   2  10   5   6020.10   4707.90    498.30   41%1 o
   4  -6   6   6561.30   3917.00    624.50   41%1 o
   4  -5   6   1268.80   1158.70    587.30   41%1 <
   3   6   6  36455.00  36892.40   1446.30   41%1 o
   3   7   6   5428.70   4643.30    633.30   41%1 o
   4   2   7  26325.00  25506.60   1190.50   41%1 o
   5  -4   8    660.45    -50.00    257.80   41%1 <
   5   3   9   3480.70   3488.00    452.80   41%1 o
   5   4   9    484.31   1428.80    310.50   41%1 o
  -5  -1  -8    363.51    629.00    377.00   41%1 <
  -4  -6  -7  15934.00  22230.90   1048.60   41%1 o
  -5   6  -7   1977.50    963.90    266.50   41%1 o
  -4   2  -6   3376.20   3700.90    615.90   41%1 o
  -3  -2  -5   3722.00   1583.70    769.30   41%1 <
  -3   5  -4    843.49     84.50    469.30   41%1 <
   3   1   5 121520.00 111743.00   2570.10   41%1 o
   4  -4   6  28201.00  34954.40   1419.10   41%1 o
   4   3   7   1591.00   3863.70    578.80   41%1 o
   5  -3   8   5983.40   7443.20    671.30   41%1 o
   5  -2   8  26756.00  36320.90   1347.60   41%1 o
  -5   1  -8    641.25   1326.30    422.50   42%1 o
  -5   2  -8  24798.00  30512.70   1268.20   42%1 o
  -5   3  -8   4848.00   4248.30    485.30   42%1 o
  -4  -4  -7   6356.20   4929.50    631.30   42%1 o
  -4  -3  -7   1186.50   2865.60    564.40   42%1 o
  -4  -2  -7  20625.00  21894.60   1129.60   42%1 o
  -3  -9  -6  18239.00  21466.20   1017.20   42%1 o
  -3  -8  -6   5288.40   3211.50    469.50   42%1 o
  -4   4  -6  25803.00  26786.10   1271.70   42%1 o
  -4   5  -6   1302.10   2891.80    532.00   42%1 o
  -3   0  -5  36358.00  41505.10   1729.10   42%1 o
  -2  -6  -4   3526.80   3765.10    671.90   42%1 o
  -2  -5  -4  23833.00  16444.60   1186.90   42%1 o
  -3   7  -4   2405.00   2549.90    583.20   42%1 o
  -2   3  -3  74785.00  50262.40   2436.20   42%1 o
  -2   9  -2   3514.30   3134.30    702.40   42%1 o
   2  -3   3  22880.00  51020.30   2524.00   42%1 o
   3 -10   4   5107.40   2603.40    403.50   42%1 o
   3  -9   4  31947.00  29897.10   1187.40   42%1 o
   2   4   4  56805.00  76969.20   2303.30   42%1 o
   3  -2   5  12096.00  18659.00   1256.20   42%1 o
   3  -1   5 113860.00  75077.50   2183.00   42%1 o
   2  10   5   4326.20   4707.90    498.30   42%1 o
   4  -8   6   1986.10    859.50    291.40   42%1 <
   4  -7   6    649.22   5059.90    524.00   42%1 o
   3   5   6   5044.50   6769.00    709.40   42%1 o
   3   6   6  32315.00  36892.40   1446.30   42%1 o
   4   1   7   7779.10  19744.70   1071.40   42%1 o
   5  -5   8   2176.40   3090.50    415.00   42%1 o
   5  -4   8    662.89    -50.00    257.80   42%1 <
   4   7   8   3193.00   1892.00    356.30   42%1 o
   5   1   9    292.65    897.10    308.10   42%1 <
   5   2   9   1702.50    534.30    269.70   42%1 <
   5   3   9   2925.80   3488.00    452.80   42%1 o
  -5  -4  -9    868.41   6362.30    548.70   43%1 o
  -5  -3  -9   4157.20   4082.10    452.50   43%1 o
  -5  -2  -9   1641.60   1160.10    293.60   43%1 o
  -5   3  -8   4411.00   4248.30    485.30   43%1 o
  -5   4  -8    895.99    421.00    214.40   43%1 <
  -4  -2  -7  19729.00  21894.60   1129.60   43%1 o
  -4  -1  -7   8171.20  21475.10   1069.20   43%1 o
  -3  -7  -6   3334.60   5305.20    703.90   43%1 o
  -3  -6  -6  32573.00  39381.30   1466.00   43%1 o
  -4   5  -6   2580.80   2891.80    532.00   43%1 o
  -4   6  -6   6341.40   3446.10    516.00   43%1 o
  -3   1  -5  96616.00  73315.00   2225.70   43%1 o
  -3   2  -5   4022.80   9146.90    905.50   43%1 o
  -2  -4  -4  54968.00  75247.50   2305.10   43%1 o
  -3   7  -4   2086.20   2549.90    583.20   43%1 o
  -3   8  -4  12771.00   9329.10    788.10   43%1 o
  -1 -11  -3   6761.50   5330.40    553.20   43%1 o
  -1 -10  -3  16752.00  15428.30    923.20   43%1 o
  -2   3  -3  62292.00  50262.40   2436.20   43%1 o
  -2   9  -2   2633.80   3134.30    702.40   43%1 o
   2  -4   3 166910.00 131253.00   3037.40   43%1 o
   1   8   3  25837.00  41114.70   1540.00   43%1 o
   3 -10   4   6226.60   2603.40    403.50   43%1 o
   2   3   4  10011.00  17944.90   1782.90   43%1 o
   3  -3   5  17272.00  16981.30   1088.40   43%1 o
   3  -2   5   4817.20  18659.00   1256.20   43%1 o
   2   9   5  98103.00  81875.00   2071.50   43%1 o
   4  -8   6   1027.40    859.50    291.40   43%1 <
   3   4   6   7529.10   7682.50    691.40   43%1 o
   3   5   6   4667.90   6769.00    709.40   43%1 o
   4  -2   7  23127.00  25314.90   1205.40   43%1 o
   4  -1   7   1990.90   3432.80    603.30   43%1 o
   4   5   8   3577.60   4784.50    535.10   43%1 o
   4   6   8    155.51    127.60    243.60   43%1 <
   5  -1   9   1175.50   2304.00    383.40   43%1 o
   5   0   9  32981.00  35799.90   1333.90   43%1 o
   5   1   9    410.51    897.10    308.10   43%1 <
  -5  -3  -9   5038.90   4082.10    452.50   44%1 o
  -5  -2  -9   1864.50   1160.10    293.60   44%1 o
  -5  -1  -9    316.05    347.20    232.30   44%1 <
  -4  -7  -8   3074.50   1915.30    323.00   44%1 o
  -4  -6  -8    390.31    451.60    230.90   44%1 <
  -5   4  -8    819.99    421.00    214.40   44%1 <
  -5   5  -8    365.01    258.70    200.40   44%1 <
  -4   1  -7   2451.30   3895.50    556.90   44%1 o
  -3  -6  -6  33476.00  39381.30   1466.00   44%1 o
  -3  -5  -6   3556.20   6445.10    675.10   44%1 o
  -4   6  -6   6272.30   3446.10    516.00   44%1 o
  -4   7  -6    185.89    281.20    260.60   44%1 <
  -3   2  -5   4522.10   9146.90    905.50   44%1 o
  -3   3  -5  18571.00  22514.30   1177.60   44%1 o
  -2  -4  -4  54962.00  75247.50   2305.10   44%1 o
  -2  -3  -4   6853.40   8602.90   1746.00   44%1 o
  -3   8  -4  13330.00   9329.10    788.10   44%1 o
  -3   9  -4  27559.00  24868.60   1117.70   44%1 o
  -1 -10  -3  16483.00  15428.30    923.20   44%1 o
  -2   4  -3 186070.00 148439.00   3273.80   44%1 o
  -2  10  -2   4979.20   8571.20    688.80   44%1 o
   2  -5   3  80120.00  75258.50   2187.90   44%1 o
   2   2   4  68556.00  83806.30   2690.00   44%1 o
   2   3   4   7719.90  17944.90   1782.90   44%1 o
   3  -4   5   5185.80   7720.10    767.80   44%1 o
   3  -3   5  17135.00  16981.30   1088.40   44%1 o
   2   8   5   4342.90   6430.80    741.60   44%1 o
   2   9   5 104070.00  81875.00   2071.50   44%1 o
   3   3   6   1451.90   4187.00    604.80   44%1 o
   3   4   6   8102.80   7682.50    691.40   44%1 o
   4  -3   7   2330.50   3744.30    526.90   44%1 o
   4  -2   7  22961.00  25314.90   1205.40   44%1 o
   3   9   7    195.02    141.00    193.70   44%1 <
   4   3   8  13050.00  16145.10    982.10   44%1 o
   4   4   8    505.44    840.50    379.70   44%1 <
   4   5   8   3693.50   4784.50    535.10   44%1 o
   5  -3   9   1810.80   1612.90    320.60   44%1 o
   5  -2   9   2007.90   1264.30    288.60   44%1 o
   5  -1   9   1165.50   2304.00    383.40   44%1 o
   5   0   9  30349.00  35799.90   1333.90   44%1 o
  -5  -1  -9    389.47    347.20    232.30   45%1 <
  -5   0  -9  31125.00  34330.50   1269.80   45%1 o
  -5   1  -9    685.65   1440.40    303.20   45%1 o
  -4  -7  -8   2857.00   1915.30    323.00   45%1 o
  -4  -6  -8    335.54    451.60    230.90   45%1 <
  -4  -5  -8    748.03    820.20    343.10   45%1 <
  -5   5  -8    388.00    258.70    200.40   45%1 <
  -4   1  -7   3101.10   3895.50    556.90   45%1 o
  -4   2  -7  31750.00  32377.60   1315.40   45%1 o
  -3  -5  -6   4407.10   6445.10    675.10   45%1 o
  -3  -4  -6   8595.40   7228.70    688.60   45%1 o
  -3  -3  -6   1325.20   4504.50    592.80   45%1 o
  -4   7  -6    217.70    281.20    260.60   45%1 <
  -4   8  -6   2463.40   1996.00    346.10   45%1 o
  -2 -10  -5   1722.60   1640.60    374.00   45%1 o
  -3   3  -5  13601.00  22514.30   1177.60   45%1 o
  -2  -3  -4   5610.10   8602.90   1746.00   45%1 o
  -2  -2  -4  67619.00  76611.90   2623.60   45%1 o
  -3   9  -4  22373.00  24868.60   1117.70   45%1 o
  -1  -9  -3  12798.00  12185.70   1038.20   45%1 o
  -2   4  -3 190640.00 148439.00   3273.80   45%1 o
  -2  10  -2   5104.30   8571.20    688.80   45%1 o
   2  -5   3  77628.00  75258.50   2187.90   45%1 o
   2   2   4  72397.00  83806.30   2690.00   45%1 o
   3  -5   5   2992.40   3618.10    594.10   45%1 o
   3  -4   5   9145.20   7720.10    767.80   45%1 o
   2   8   5   7510.20   6430.80    741.60   45%1 o
   3   2   6  15612.00  12738.00    898.00   45%1 o
   3   3   6   2268.20   4187.00    604.80   45%1 o
   4  -4   7   6420.20   3237.50    569.80   45%1 o
   4  -3   7   2764.80   3744.30    526.90   45%1 o
   3   8   7    500.22    224.90    233.70   45%1 <
   3   9   7    138.01    141.00    193.70   45%1 <
   4   2   8   2833.90   2676.70    557.80   45%1 o
   4   3   8  13020.00  16145.10    982.10   45%1 o
   4   4   8    190.16    840.50    379.70   45%1 <
   5  -4   9    527.69    342.50    218.30   45%1 <
   5  -3   9   1832.00   1612.90    320.60   45%1 o
   5  -2   9   1824.20   1264.30    288.60   45%1 o
   5   2  10    267.67     51.40    159.80   45%1 <
   5   3  10   3989.30   2986.40    395.50   45%1 o
  -5  -3 -10   4345.20   2575.10    369.90   46%1 o
  -5   2  -9   1907.50    932.70    295.20   46%1 o
  -5   3  -9   1465.50   1350.20    275.50   46%1 o
  -5   4  -9    530.24     75.30    174.80   46%1 <
  -4  -4  -8    163.68    329.40    440.30   46%1 <
  -4  -3  -8  11349.00  15225.40    957.20   46%1 o
  -4  -2  -8   3344.70   4224.00    589.20   46%1 o
  -3  -9  -7    369.08     37.20    200.80   46%1 <
  -4   3  -7   1265.80   3781.80    563.30   46%1 o
  -4   4  -7   6711.40   6605.40    632.50   46%1 o
  -3  -3  -6   1515.20   4504.50    592.80   46%1 o
  -3  -2  -6  16264.00  14932.80    970.70   46%1 o
  -3  -1  -6   4572.30   5058.80    663.50   46%1 o
  -2  -9  -5 111370.00 111570.00   2428.20   46%1 o
  -2  -8  -5   1295.50   2346.90    675.00   46%1 o
  -3   4  -5   1146.80   4431.00    629.20   46%1 o
  -3   5  -5   2974.50   1383.70    472.40   46%1 <
  -2  -1  -4 127860.00 113933.00   3004.00   46%1 o
  -3  10  -4   5574.10   3069.20    432.20   46%1 o
  -1  -8  -3  14785.00  19668.20   1121.30   46%1 o
  -2   5  -3  81175.00  78991.10   2228.50   46%1 o
   2  -7   3   2600.40   1584.80    514.80   46%1 o
   2  -6   3  27745.00  25825.30   1281.20   46%1 o
   1   6   3  52935.00  52155.30   1863.30   46%1 o
   2   0   4   2025.60   7846.40   1644.40   46%1 o
   2   1   4 115090.00 109835.00   2937.40   46%1 o
   3  -7   5  34164.00  47958.50   1610.70   46%1 o
   3  -6   5   3285.00   3159.10    644.60   46%1 o
   2   6   5  20893.00  17940.30   1082.50   46%1 o
   2   7   5  11037.00   9787.90    764.80   46%1 o
   3   1   6   5635.10   3920.80    721.30   46%1 o
   4  -8   7   1174.60    -48.70    209.00   46%1 <
   4  -7   7    595.11     72.70    214.70   46%1 <
   4  -6   7  15855.00  24748.70   1112.20   46%1 o
   3   6   7   5664.50   5973.00    711.60   46%1 o
   3   7   7  24620.00  23432.50   1149.60   46%1 o
   4   0   8    180.62    913.10    431.70   46%1 <
   4   1   8  10332.00  12741.10    856.20   46%1 o
   4   6   9   1182.50     -9.20    183.20   46%1 <
   5   1  10   4746.90   3121.60    388.00   46%1 o
   5  -1  10   4123.40   2682.10    369.90   46%1 o
  -5  -2 -10    304.88     36.30    152.40   47%1 <
  -5  -1 -10   3434.80   2498.40    359.10   47%1 o
  -5   4  -9    502.02     75.30    174.80   47%1 <
  -4  -2  -8   3206.70   4224.00    589.20   47%1 o
  -4  -1  -8  10470.00  12431.80    877.90   47%1 o
  -4   0  -8    202.72   1091.10    396.50   47%1 <
  -3  -9  -7    317.32     37.20    200.80   47%1 <
  -3  -8  -7   1132.80    604.20    262.50   47%1 <
  -3  -7  -7  24031.00  30495.50   1241.30   47%1 o
  -4   5  -7   9229.80  10971.20    758.80   47%1 o
  -4   6  -7  15544.00  19979.40    974.30   47%1 o
  -3  -1  -6   4263.60   5058.80    663.50   47%1 o
  -2  -8  -5   1356.90   2346.90    675.00   47%1 o
  -2  -7  -5   2384.20   2843.40    559.80   47%1 o
  -3   6  -5   3386.90   3739.20    590.80   47%1 o
  -2   0  -4   1941.00   4533.90   1591.90   47%1 <
  -1  -7  -3   6438.30  12425.30   1069.80   47%1 o
  -2   6  -3  30659.00  30059.00   1379.50   47%1 o
  -2  11  -2  18003.00  13795.20    811.20   47%1 o
   2  -8   3   4413.00   6155.10    786.90   47%1 o
   1   6   3  52308.00  52155.30   1863.30   47%1 o
   2  -1   4 133090.00 126341.00   3111.10   47%1 o
   2   0   4   1894.00   7846.40   1644.40   47%1 o
   1  11   4  22629.00  21968.20   1006.60   47%1 o
   3  -9   5   1185.80    613.40    280.70   47%1 <
   3  -8   5   2998.30    652.80    379.50   47%1 <
   2   5   5 106500.00  89057.30   2251.50   47%1 o
   2   6   5  20070.00  17940.30   1082.50   47%1 o
   3  -2   6  15329.00  19418.90   1061.60   47%1 o
   3  -1   6   4544.20   5057.90    694.40   47%1 o
   2  10   6    315.38   2806.90    402.30   47%1 o
   4  -8   7    958.63    -48.70    209.00   47%1 <
   3   5   7   3957.60   6711.10    655.40   47%1 o
   4  -3   8  11245.00  13703.30    911.70   47%1 o
   4  -2   8   2925.50   4161.00    589.80   47%1 o
   4  -1   8  11665.00  11797.80    867.60   47%1 o
   4   4   9   2049.90   2411.90    394.30   47%1 o
   4   5   9   3626.60   2999.50    409.90   47%1 o
   5  -3  10   4218.60   2064.10    341.90   47%1 o
   5  -2  10    363.50   -130.00    152.20   47%1 <
   5  -1  10   3697.20   2682.10    369.90   47%1 o
  -5   1 -10   4984.10   2667.00    377.30   48%1 o
  -5   2 -10    238.02    288.10    199.90   48%1 <
  -4  -6  -9    911.72    138.20    207.50   48%1 <
  -4  -5  -9   3513.40   3790.10    445.10   48%1 o
  -4   0  -8    247.78   1091.10    396.50   48%1 <
  -4   1  -8  11849.00  13823.10    863.80   48%1 o
  -4   2  -8   3230.30   4791.50    620.30   48%1 o
  -3  -7  -7  25382.00  30495.50   1241.30   48%1 o
  -3  -6  -7   5426.10   9051.60    794.10   48%1 o
  -3  -5  -7   3711.70   4162.80    568.40   48%1 o
  -4   6  -7  16273.00  19979.40    974.30   48%1 o
  -4   7  -7    333.40    597.60    257.60   48%1 <
  -3   1  -6   4586.80   5033.30    735.30   48%1 o
  -2  -7  -5   2449.50   2843.40    559.80   48%1 o
  -2  -6  -5  22570.00  18643.40   1048.70   48%1 o
  -3   6  -5   3251.20   3739.20    590.80   48%1 o
  -3   7  -5  35452.00  36978.60   1428.10   48%1 o
  -2   1  -4 148150.00 116772.00   3124.00   48%1 o
  -1  -6  -3  63464.00  59539.90   1940.50   48%1 o
   2  -9   3   6405.50   6441.50    765.80   48%1 o
   2  -8   3   4863.00   6155.10    786.90   48%1 o
   2  -2   4  77813.00  75385.50   2687.80   48%1 o
   2  -1   4 143280.00 126341.00   3111.10   48%1 o
   1  10   4   3599.50  23569.70   1034.10   48%1 o
   3  -9   5   1167.30    613.40    280.70   48%1 <
   2   4   5  21157.00  43522.10   1652.70   48%1 o
   2   5   5 106670.00  89057.30   2251.50   48%1 o
   3  -3   6   2037.80   4582.10    663.10   48%1 o
   3  -2   6  17660.00  19418.90   1061.60   48%1 o
   2  10   6    373.13   2806.90    402.30   48%1 o
   3   3   7  12511.00  13052.00    912.70   48%1 o
   3   4   7  42566.00  38942.20   1452.90   48%1 o
   4  -4   8    202.03    549.70    351.60   48%1 <
   4  -3   8  11245.00  13703.30    911.70   48%1 o
   4  -2   8   3127.90   4161.00    589.80   48%1 o
   4   2   9    239.17   1262.50    429.70   48%1 <
   4   3   9   4602.40   6383.60    637.50   48%1 o
   4   4   9   2080.30   2411.90    394.30   48%1 o
   5  -3  10   4264.50   2064.10    341.90   48%1 o
   2 -10   3  15345.00  11866.50    780.50   49%1 o
   2  -3   4   8026.80  10199.70   1920.60   49%1 o
   2  -2   4  60664.00  75385.50   2687.80   49%1 o
   2   3   5   4431.90   9192.20   1224.60   49%1 o
   2   4   5  43924.00  43522.10   1652.70   49%1 o
   3  -5   6   6383.10   4904.50    661.50   49%1 o
   3  -4   6   6794.20   5714.10    647.00   49%1 o
   2   9   6  27391.00  21696.30   1002.20   49%1 o
   3   2   7   1112.80   2361.30    469.90   49%1 o
   3   3   7  11044.00  13052.00    912.70   49%1 o
   4  -7   8   4332.20   2284.10    360.00   49%1 o
   4  -6   8    501.17    266.80    268.70   49%1 <
   4  -5   8    786.75   1119.90    345.90   49%1 o
   3   7   8   1345.20    834.00    281.40   49%1 <
   3   8   8   1179.10   1392.40    299.80   49%1 o
   4   1   9  10107.00   8458.20    752.20   49%1 o
   4   5  10    321.76    161.70    188.00   49%1 <
  -5   3 -10   4852.50   1328.90    289.00   49%1 o
  -4  -5  -9   4565.90   3790.10    445.10   49%1 o
  -4  -4  -9   3227.00   3190.40    465.20   49%1 o
  -4  -3  -9    241.12   4420.80    510.90   49%1 o
  -4   2  -8   3268.50   4791.50    620.30   49%1 o
  -4   3  -8  12091.00  15242.60    950.40   49%1 o
  -4   4  -8     60.12    148.70    340.40   49%1 <
  -3  -5  -7   2858.40   4162.80    568.40   49%1 o
  -3  -4  -7  28811.00  32545.60   1337.40   49%1 o
  -3  -3  -7  10429.00  12168.40    893.40   49%1 o
  -4   8  -7   1055.50    748.60    254.90   49%1 <
  -3   2  -6  18368.00  16642.90   1041.30   49%1 o
  -3   3  -6   2917.90   4867.80    599.50   49%1 o
  -2  -5  -5 107910.00  92114.20   2216.50   49%1 o
  -2  -4  -5   8072.60  29608.10   1370.20   49%1 o
  -3   8  -5   6461.40   2198.60    491.90   49%1 o
  -3   9  -5    286.61    136.40    261.50   49%1 <
  -2   2  -4  82115.00  84555.20   2759.90   49%1 o
  -1  -6  -3  55691.00  59539.90   1940.50   49%1 o
  -2   8  -3   7478.40   5396.10    712.70   49%1 o
  -4  -2  -9    391.15    686.80    471.20   49%1 <
   2 -10   3  19105.00  11866.50    780.50   50%1 o
   1   4   3 261440.00 215116.00   3924.40   50%1 o
   2  -3   4   6729.30  10199.70   1920.60   50%1 o
   1   9   4  38562.00  47970.40   1623.70   50%1 o
   2   3   5   3918.10   9192.20   1224.60   50%1 o
   3  -5   6   6429.90   4904.50    661.50   50%1 o
   3  -4   6   8770.70   5714.10    647.00   50%1 o
   2   8   6   2821.00   2062.30    446.90   50%1 o
   3   1   7  12158.00  11893.50    853.80   50%1 o
   3   2   7    907.28   2361.30    469.90   50%1 o
   4  -7   8   3219.70   2284.10    360.00   50%1 o
   4  -6   8    154.33    266.80    268.70   50%1 <
   3   6   8   3162.10   3126.00    479.20   50%1 o
   3   7   8   1159.90    834.00    281.40   50%1 <
   4  -2   9    635.39   3477.70    557.60   50%1 o
   4  -1   9   7219.70   9461.90    800.30   50%1 o
   4   4  10   3004.60   1965.40    327.20   50%1 o
   4   5  10     32.84    161.70    188.00   50%1 <
  -4  -2  -9    206.37    686.80    471.20   50%1 <
  -4  -1  -9   9926.70   9412.50    761.60   50%1 o
  -4   4  -8     95.24    148.70    340.40   50%1 <
  -4   5  -8    646.28   1146.90    331.70   50%1 o
  -3  -3  -7  13176.00  12168.40    893.40   50%1 o
  -3  -2  -7    707.10   3156.40    488.10   50%1 o
  -2 -10  -6    430.00   1124.20    308.00   50%1 o
  -3   3  -6   1819.40   4867.80    599.50   50%1 o
  -3   4  -6   5188.40   4320.10    566.10   50%1 o
  -2  -4  -5  29480.00  29608.10   1370.20   50%1 o
  -2  -3  -5   4190.60  26145.40   1556.80   50%1 o
  -3   8  -5   2731.90   2198.60    491.90   50%1 o
  -2   2  -4  73785.00  84555.20   2759.90   50%1 o
  -2   7  -3    750.85   9571.70    770.00   50%1 o
  -4  -3  -9   2480.10   4420.80    510.90   50%1 o
  -4   3  -8  12196.00  15242.60    950.40   50%1 o
   1   4   3 263700.00 215116.00   3924.40   51%1 o
   2  -4   4  71960.00  87335.90   2430.80   51%1 o
   1   9   4  61241.00  47970.40   1623.70   51%1 o
   2   2   5  60402.00  49525.90   2210.70   51%1 o
   2   3   5   4411.50   9192.20   1224.60   51%1 o
   3  -7   6   2056.10   5390.50    651.30   51%1 o
   3  -6   6  33157.00  42242.20   1512.70   51%1 o
   3  -5   6   5748.70   4904.50    661.50   51%1 o
   2   7   6  22294.00  16707.10    978.20   51%1 o
   2   8   6   2872.30   2062.30    446.90   51%1 o
   3   0   7  11018.00  18609.50   1086.80   51%1 o
   3   1   7  10239.00  11893.50    853.80   51%1 o
   3   5   8   6012.90   6112.40    668.70   51%1 o
   3   6   8   3571.10   3126.00    479.20   51%1 o
   4  -3   9    564.67   1711.30    358.80   51%1 o
   4  -2   9    762.67   3477.70    557.60   51%1 o
   4  -1   9  10308.00   9461.90    800.30   51%1 o
   4   3  10    579.19   1469.40    311.60   51%1 o
   4   4  10   3968.60   1965.40    327.20   51%1 o
   4   5  10     56.37    161.70    188.00   51%1 <
  -4  -2  -9    384.40    686.80    471.20   51%1 <
  -4  -1  -9   8768.50   9412.50    761.60   51%1 o
  -3  -8  -8    881.26    324.20    214.80   51%1 <
  -4   4  -8     69.10    148.70    340.40   51%1 <
  -4   5  -8   1821.20   1146.90    331.70   51%1 o
  -4   6  -8    166.85     76.10    212.10   51%1 <
  -3  -3  -7  10115.00  12168.40    893.40   51%1 o
  -3  -2  -7   1839.20   3156.40    488.10   51%1 o
  -3  -1  -7   8751.40   9231.50    755.60   51%1 o
  -3   4  -6   6752.10   4320.10    566.10   51%1 o
  -2  -4  -5   8242.30  29608.10   1370.20   51%1 o
  -2  -3  -5   9960.40  26145.40   1556.80   51%1 o
  -3   9  -5    376.49    136.40    261.50   51%1 <
  -2   3  -4   6881.80  14681.30   1647.20   51%1 o
  -2   8  -3   4919.60   5396.10    712.70   51%1 o
   2  -5   4  25868.00  15729.30   1161.10   52%1 o
   1   8   4  12499.00  10769.10    795.90   52%1 o
   2   1   5   8149.20   8691.60   1741.20   52%1 o
   2   2   5  57535.00  49525.90   2210.70   52%1 o
   3  -8   6   7548.40   3011.40    447.40   52%1 o
   3  -7   6   3186.60   5390.50    651.30   52%1 o
   2   6   6   1030.30   3911.00    564.20   52%1 o
   2   7   6   8674.90  16707.10    978.20   52%1 o
   3  -2   7    391.64   2017.50    448.30   52%1 o
   3  -1   7   8234.50   7802.40    689.50   52%1 o
   3   4   8  16361.00  15321.90    951.70   52%1 o
   3   5   8   6406.00   6112.40    668.70   52%1 o
   4  -5   9   2717.90   2857.90    407.80   52%1 o
   4  -4   9   2693.40   1335.90    361.10   52%1 o
   4  -3   9    846.24   1711.30    358.80   52%1 o
   4   1  10   6403.00   4213.10    509.40   52%1 o
   4   2  10   3983.90   2710.50    437.50   52%1 o
   4   3  10    707.40   1469.40    311.60   52%1 o
  -4  -5 -10    396.11   1533.70    307.40   52%1 o
  -4  -4 -10   5205.80   2196.40    347.90   52%1 o
  -4   1  -9   8198.20  10001.50    771.20   52%1 o
  -4   2  -9    662.62   3734.70    549.30   52%1 o
  -3  -8  -8    616.60    324.20    214.80   52%1 <
  -3  -7  -8   2244.40   7840.80    596.90   52%1 o
  -3  -6  -8   2755.90   2560.60    438.10   52%1 o
  -4   6  -8    131.09     76.10    212.10   52%1 <
  -4   7  -8   2972.70   1866.70    328.80   52%1 o
  -3  -1  -7  10976.00   9231.50    755.60   52%1 o
  -3   0  -7  10723.00  14249.60    926.90   52%1 o
  -2 -10  -6   1935.80   1124.20    308.00   52%1 o
  -2  -9  -6  23509.00  38607.70   1349.80   52%1 o
  -3   5  -6   7499.50   4936.50    589.20   52%1 o
  -3   6  -6  34469.00  45378.00   1485.10   52%1 o
  -2  -2  -5  72774.00  59545.30   2247.60   52%1 o
  -1 -11  -4  15842.00  23405.70   1032.90   52%1 o
  -2   4  -4  62585.00  97908.60   2579.60   52%1 o
  -1  -4  -3 244480.00 198447.00   3835.70   52%1 o
  -2   9  -3  15139.00  11983.90    864.80   52%1 o
  -4  -4 -10   5574.60   2196.40    347.90   53%1 o
  -4  -3 -10   1437.80   1157.60    268.50   53%1 o
  -4  -2 -10   4068.30   1795.30    341.30   53%1 o
  -4   2  -9   1375.80   3734.70    549.30   53%1 o
  -4   3  -9    251.31    950.90    320.60   53%1 <
  -4   4  -9   2068.80    804.00    299.50   53%1 <
  -3  -6  -8   1393.90   2560.60    438.10   53%1 o
  -3  -5  -8   4535.20   4067.60    554.70   53%1 o
  -3  -4  -8  17051.00  13706.80    914.20   53%1 o
  -4   7  -8   3049.60   1866.70    328.80   53%1 o
  -3   1  -7   8784.00   7046.30    655.50   53%1 o
  -3   2  -7    984.30   1534.50    413.10   53%1 o
  -2  -8  -6   3541.10   2391.70    496.80   53%1 o
  -2  -7  -6   6177.00   6333.80    706.00   53%1 o
  -3   6  -6  38363.00  45378.00   1485.10   53%1 o
  -3   7  -6   3982.50   4861.30    581.20   53%1 o
  -2  -1  -5   8954.30   9488.30   1699.80   53%1 o
  -1 -10  -4   3685.80   4022.40    525.80   53%1 o
  -2   4  -4  67200.00  97908.60   2579.60   53%1 o
  -1  -3  -3  71289.00  72185.60   2842.90   53%1 o
  -2   9  -3  14358.00  11983.90    864.80   53%1 o
   1   3   3  52938.00  70823.60   2784.60   53%1 o
   2  -6   4   5269.80   1767.00    651.10   53%1 <
   2  -5   4  30006.00  15729.30   1161.10   53%1 o
   1   8   4   9130.20  10769.10    795.90   53%1 o
   3  -9   6  21748.00  23322.70   1009.20   53%1 o
   3  -8   6   7363.20   3011.40    447.40   53%1 o
   2   5   6    828.21    795.70    429.40   53%1 <
   2   6   6   2658.90   3911.00    564.20   53%1 o
   3  -3   7   9670.60   9062.50    740.10   53%1 o
   3  -2   7    467.88   2017.50    448.30   53%1 o
   3   2   8   1546.70    963.50    438.30   53%1 <
   3   3   8   4009.80   3571.30    541.20   53%1 o
   4  -6   9   1812.10    916.00    287.50   53%1 o
   4  -5   9   2738.50   2857.90    407.80   53%1 o
   3   7   9   5607.80   2624.70    375.20   53%1 o
   4  -1  10   5671.60   5450.30    533.80   53%1 o
   4   0  10  28303.00  36866.90   1385.70   53%1 o
   4   1  10   6248.70   4213.10    509.40   53%1 o
   4   4  11    170.89     31.90    171.60   53%1 <
  -4  -2 -10   3705.70   1795.30    341.30   54%1 o
  -4  -1 -10   6531.90   3665.60    469.30   54%1 o
  -4   0 -10  30158.00  48914.70   1558.60   54%1 o
  -4   3  -9    574.13    950.90    320.60   54%1 <
  -4   4  -9   2780.80    804.00    299.50   54%1 <
  -4   5  -9   4448.30   3746.80    432.30   54%1 o
  -3  -4  -8  17284.00  13706.80    914.20   54%1 o
  -3  -3  -8   3877.00   2500.30    470.10   54%1 o
  -3  -2  -8   1253.70   1577.70    419.50   54%1 o
  -3   2  -7    693.53   1534.50    413.10   54%1 o
  -3   3  -7  10897.00  11972.80    801.00   54%1 o
  -2  -6  -6   1349.20    431.60    329.00   54%1 <
  -2  -5  -6    961.98   1279.40    423.90   54%1 o
  -3   6  -6  38381.00  45378.00   1485.10   54%1 o
  -3   7  -6   4041.30   4861.30    581.20   54%1 o
  -1  -9  -4  76911.00  68082.50   1939.10   54%1 o
  -1  -8  -4   9616.70  10487.50    871.50   54%1 o
  -2   5  -4  27182.00  21487.90   1147.60   54%1 o
  -2   9  -3   9612.30  11983.90    864.80   54%1 o
   1   2   3  13856.00  16977.30   2727.10   54%1 o
   2  -6   4   4327.00   1767.00    651.10   54%1 <
   1   7   4   8989.90   7931.40    750.40   54%1 o
   2  -1   5   9396.30   8536.70   1551.10   54%1 o
   3  -9   6  19164.00  23322.70   1009.20   54%1 o
   2   4   6   2242.60   2092.20    525.40   54%1 o
   3  -4   7  37851.00  43262.60   1474.70   54%1 o
   3  -3   7  13417.00   9062.50    740.10   54%1 o
   2   8   7     75.15    116.80    240.80   54%1 <
   2   9   7   3824.40   2975.60    418.60   54%1 o
   3   1   8   3634.40   5521.20    619.00   54%1 o
   3   2   8   1543.50    963.50    438.30   54%1 <
   4  -6   9    652.94    916.00    287.50   54%1 o
   3   5   9   1159.10    408.30    283.30   54%1 <
   3   6   9   2590.00   1403.80    322.90   54%1 o
   4  -3  10   1464.90    600.00    267.50   54%1 <
   4  -2  10   3363.10   1570.30    328.40   54%1 o
   4  -1  10   6745.20   5450.30    533.80   54%1 o
   4   2  11    154.19     -1.20    182.80   54%1 <
   4   3  11    609.09    168.40    166.60   54%1 <
   4   4  11    149.53     31.90    171.60   54%1 <
  -4  -4 -11    330.38     21.30    164.40   55%1 <
  -4   0 -10  26558.00  48914.70   1558.60   55%1 o
  -4   1 -10   5777.30   4996.40    500.50   55%1 o
  -4   2 -10   2858.90   1174.40    307.60   55%1 o
  -3  -7  -9   4415.40   3472.00    407.00   55%1 o
  -4   5  -9   5842.10   3746.80    432.30   55%1 o
  -4   6  -9   1098.80    154.90    178.20   55%1 <
  -3  -3  -8   4760.70   2500.30    470.10   55%1 o
  -3  -2  -8   1029.30   1577.70    419.50   55%1 o
  -3  -1  -8   4342.40   5719.00    632.60   55%1 o
  -3   3  -7  12060.00  11972.80    801.00   55%1 o
  -3   4  -7  32327.00  36480.60   1380.50   55%1 o
  -2  -5  -6   1047.50   1279.40    423.90   55%1 o
  -3   8  -6   6660.30   3796.50    469.20   55%1 o
  -2   1  -5   9265.80   6191.00   1636.10   55%1 o
  -1  -9  -4  78945.00  68082.50   1939.10   55%1 o
  -1  -8  -4   6999.30  10487.50    871.50   55%1 o
  -2   6  -4   5369.30   3474.70    571.40   55%1 o
  -1  -2  -3  15714.00  20919.60   2684.40   55%1 o
  -2  10  -3  19070.00  16302.20    880.60   55%1 o
  -1   3  -2   7070.30  12120.30   2977.30   55%1 o
   1   2   3  15213.00  16977.30   2727.10   55%1 o
   2  -8   4  23972.00  31205.30   1309.70   55%1 o
   2  -7   4  65627.00  71506.70   1930.20   55%1 o
   1   7   4  11787.00   7931.40    750.40   55%1 o
   2  -2   5  72111.00  62152.20   2201.60   55%1 o
   2  -1   5  10139.00   8536.70   1551.10   55%1 o
   2   3   6  13221.00   8328.20    804.40   55%1 o
   2   4   6   2409.60   2092.20    525.40   55%1 o
   3  -6   7   7377.60   7963.00    782.80   55%1 o
   3  -5   7   3633.20   5500.90    604.80   55%1 o
   2   8   7     52.34    116.80    240.80   55%1 <
   3  -1   8   7167.40   7059.50    671.30   55%1 o
   3   1   8   3481.60   5521.20    619.00   55%1 o
   3   4   9  17706.00  18558.60    981.20   55%1 o
   3   5   9    747.07    408.30    283.30   55%1 <
   3   6   9   3284.80   1403.80    322.90   55%1 o
   4  -5  10     51.19     44.30    172.50   55%1 <
   4  -4  10   3654.00   3054.40    389.70   55%1 o
   4  -3  10   1355.60    600.00    267.50   55%1 <
   4   1  11    332.69    -86.30    172.60   55%1 <
   4   2  11    139.92     -1.20    182.80   55%1 <
  -4  -2 -11    206.44     93.20    153.90   56%1 <
  -4  -1 -11     99.06    130.20    182.40   56%1 <
  -4   3 -10   1278.50    810.10    233.30   56%1 o
  -4   4 -10   3643.70   2063.70    340.50   56%1 o
  -3  -6  -9   2835.30   1094.40    300.30   56%1 o
  -3  -5  -9   1087.30    615.80    310.20   56%1 <
  -3  -4  -9  17573.00  21265.40   1076.00   56%1 o
  -3   1  -8   7520.90   9763.20    720.50   56%1 o
  -2  -9  -7   5910.20   3669.10    432.30   56%1 o
  -3   5  -7   3739.80   3462.90    511.30   56%1 o
  -3   6  -7   6056.10   6962.00    697.60   56%1 o
  -2  -3  -6   5669.00   6369.40    725.10   56%1 o
  -2   2  -5  74309.00  72826.50   2406.70   56%1 o
  -2   3  -5   2340.60   4041.80   1027.50   56%1 o
  -1  -7  -4  10098.00  10437.90    834.10   56%1 o
  -2   7  -4  65657.00  69992.00   1912.00   56%1 o
  -1  -1  -3  32137.00  27092.40   3011.70   56%1 o
   1   1   3  26883.00  22685.40   3240.60   56%1 o
   2 -10   4  20246.00  20106.70    960.30   56%1 o
   2  -9   4    432.00    119.90    426.60   56%1 <
   1   6   4  45120.00  46172.70   1651.60   56%1 o
   2  -4   5   7897.00   7451.00    841.20   56%1 o
   2  -3   5   1763.30   2706.40   1021.70   56%1 <
   1  10   5  18256.00  20826.00    966.20   56%1 o
   2   2   6    832.90   1561.00    728.40   56%1 <
   3  -9   7    130.53     38.20    187.90   56%1 <
   3  -8   7   1872.10    301.50    232.70   56%1 <
   2   6   7   4736.80   5622.80    571.50   56%1 o
   2   7   7   3497.80   3820.30    564.60   56%1 o
   3  -3   8   3697.50   1716.70    450.00   56%1 o
   3  -2   8    627.12   2004.30    454.00   56%1 o
   3   2   9   2000.50   1401.10    400.80   56%1 o
   3   3   9   3185.10   3357.40    492.90   56%1 o
   3   6  10   3100.80   1357.00    287.00   56%1 o
   4  -2  11    183.15     98.90    173.80   56%1 <
   4  -1  11    250.40     91.20    161.50   56%1 <
  -4   5 -10     49.73     16.80    144.20   56%1 <
  -3   2  -8    539.57    725.20    349.70   56%1 <
  -2  -2  -6    475.84    960.00    650.00   56%1 <
   2   1   6   6777.90   4947.90   1007.00   56%1 o
   3  -4   8  17824.00  19065.50   1027.50   56%1 o
   4  -4  11    205.41     48.90    171.40   56%1 <
   4  -3  11    440.13      1.10    141.20   56%1 <
   4   1  12     94.78    184.40    162.30   56%1 <
  -4  -3 -11    420.96     55.20    171.70   57%1 <
  -4  -2 -11    211.25     93.20    153.90   57%1 <
  -4  -1 -11     89.86    130.20    182.40   57%1 <
  -4   3 -10   1343.10    810.10    233.30   57%1 o
  -4   4 -10   3665.40   2063.70    340.50   57%1 o
  -4   5 -10     47.58     16.80    144.20   57%1 <
  -3  -6  -9   2731.00   1094.40    300.30   57%1 o
  -3  -5  -9   1102.80    615.80    310.20   57%1 <
  -3  -4  -9  17293.00  21265.40   1076.00   57%1 o
  -3   1  -8   6963.60   9763.20    720.50   57%1 o
  -2  -9  -7   5798.20   3669.10    432.30   57%1 o
  -3   5  -7   3695.80   3462.90    511.30   57%1 o
  -3   6  -7   6071.50   6962.00    697.60   57%1 o
  -2  -3  -6   5568.10   6369.40    725.10   57%1 o
  -2   2  -5  76061.00  72826.50   2406.70   57%1 o
  -2   3  -5   2236.40   4041.80   1027.50   57%1 o
  -1  -8  -4   6027.60  10487.50    871.50   57%1 o
  -1  -7  -4   8747.50  10437.90    834.10   57%1 o
  -2   7  -4  69963.00  69992.00   1912.00   57%1 o
  -1  -1  -3  30105.00  27092.40   3011.70   57%1 o
   1   1   3  25325.00  22685.40   3240.60   57%1 o
   2 -10   4  19679.00  20106.70    960.30   57%1 o
   2  -9   4    465.00    119.90    426.60   57%1 <
   1   6   4  47472.00  46172.70   1651.60   57%1 o
   2  -4   5   7390.10   7451.00    841.20   57%1 o
   2  -3   5   1821.00   2706.40   1021.70   57%1 <
   1  10   5  18399.00  20826.00    966.20   57%1 o
   2   2   6    951.76   1561.00    728.40   57%1 <
   3  -9   7    204.40     38.20    187.90   57%1 <
   3  -8   7   2112.90    301.50    232.70   57%1 <
   2   6   7   4877.40   5622.80    571.50   57%1 o
   2   7   7   3563.50   3820.30    564.60   57%1 o
   3  -3   8   3500.40   1716.70    450.00   57%1 o
   3  -2   8    423.73   2004.30    454.00   57%1 o
   3   2   9   1843.00   1401.10    400.80   57%1 o
   3   3   9   2960.90   3357.40    492.90   57%1 o
   3   6  10   3266.60   1357.00    287.00   57%1 o
   4  -3  11    385.83      1.10    141.20   57%1 <
   4  -2  11    182.79     98.90    173.80   57%1 <
   4  -1  11    187.16     91.20    161.50   57%1 <
  -4   3 -11    367.63     16.80    173.50   58%1 <
  -3  -1  -9    667.39   1351.10    358.20   58%1 o
  -3   3  -8   2529.70   2854.60    467.40   58%1 o
  -2  -7  -7   2599.20   4187.40    584.00   58%1 o
  -2  -6  -7   5336.20   7217.00    689.40   58%1 o
  -3   7  -7  25685.00  32603.10   1276.10   58%1 o
  -3   8  -7   1543.10    191.60    229.80   58%1 <
  -2  -1  -6   6096.80   5803.80   1100.90   58%1 o
  -2   4  -5   8839.10   7057.10    835.00   58%1 o
  -1  -6  -4  46076.00  50392.10   1748.80   58%1 o
  -2   8  -4  21803.00  16729.80    987.70   58%1 o
   1  -5   2  11734.00  16595.20   2153.10   58%1 o
   1   0   3  14004.00  37887.10   3465.10   58%1 o
   1   5   4 280180.00 272041.00   4000.10   58%1 o
   2  -5   5 102750.00 100208.00   2292.10   58%1 o
   1   9   5  30193.00  31168.70   1254.50   58%1 o
   2   0   6  18359.00  13490.60   1248.50   58%1 o
   2   4   7   7163.60   5019.50    600.50   58%1 o
   3  -6   8   1041.80    686.50    346.10   58%1 <
   3  -5   8   4540.50   7942.60    728.40   58%1 o
   2   8   8     76.81    144.10    219.40   58%1 <
   2   9   8   7583.10   7087.50    582.60   58%1 o
   3  -1   9    283.79    811.60    394.80   58%1 <
   3   4  10    154.19    261.00    239.00   58%1 <
  -4   1 -11     27.41     72.30    175.90   58%1 <
  -4   2 -11    137.59      1.40    152.60   58%1 <
  -3  -3  -9   2700.50   3171.10    465.20   58%1 o
  -3  -2  -9   2743.10   1048.70    406.30   58%1 <
  -3   2  -8    492.64    725.20    349.70   58%1 <
  -2  -8  -7     50.66     32.80    230.10   58%1 <
  -2  -2  -6    503.89    960.00    650.00   58%1 <
   2   1   6   5766.10   4947.90   1007.00   58%1 o
   2   5   7  17436.00  12807.80    810.00   58%1 o
   3  -4   8  15894.00  19065.50   1027.50   58%1 o
   3   0   9  19842.00  19322.20   1033.40   58%1 o
   3   1   9    604.65   1130.50    378.90   58%1 <
   3   5  10    860.60   1471.70    317.30   58%1 o
   4  -4  11    233.76     48.90    171.40   58%1 <
   4  -1  12     57.03      5.90    146.10   58%1 <
   4   0  12   1353.90   1135.20    275.50   58%1 o
   4   1  12    227.93    184.40    162.30   58%1 <
  -4   4 -11     82.00     -4.30    161.60   59%1 <
  -3  -6 -10   3559.80   1818.10    329.40   59%1 o
  -3  -5 -10    673.36    761.80    247.50   59%1 o
  -3  -4 -10    527.05     57.80    260.30   59%1 <
  -3   0  -9  14897.00  21060.10   1046.20   59%1 o
  -3   1  -9    168.06    473.70    314.40   59%1 <
  -2  -9  -8   5708.40   4199.20    463.00   59%1 o
  -3   4  -8  15946.00  16509.20    961.10   59%1 o
  -3   5  -8   4566.90   5694.60    617.00   59%1 o
  -2  -5  -7  13353.00  14533.40    891.10   59%1 o
  -2  -4  -7   6198.80   6135.50    607.60   59%1 o
  -3   8  -7   1599.10    191.60    229.80   59%1 <
  -3   9  -7    279.72      2.80    199.50   59%1 <
  -2   0  -6   9883.80  15262.80   1332.10   59%1 o
  -2   1  -6   1821.70   7668.60   1024.30   59%1 o
  -1 -10  -5   5091.70  15926.20    852.70   59%1 o
  -2   5  -5 106820.00 116117.00   2464.60   59%1 o
  -1  -5  -4 302800.00 250796.00   3865.70   59%1 o
  -2   9  -4    234.81    640.90    361.90   59%1 <
  -1   0  -3  21564.00  40733.10   3454.60   59%1 o
   1   4   4  12599.00  17965.10   1888.00   59%1 o
   2  -7   5   2214.50   2289.50    580.90   59%1 o
   2  -6   5  19356.00  16785.90    984.60   59%1 o
   1   8   5  11533.00   7503.50    725.50   59%1 o
   2  -2   6    619.90   1308.90    809.20   59%1 <
   2  -1   6   2667.50  11571.80   1227.50   59%1 o
   2   3   7    946.05    854.80    405.50   59%1 <
   3  -8   8    781.00    -16.10    211.80   59%1 <
   3  -7   8    726.56    411.70    245.50   59%1 <
   2   7   8  35566.00  36217.70   1331.20   59%1 o
   3  -3   9   2961.00   3434.50    524.80   59%1 o
   3  -2   9   3276.90   1760.00    426.40   59%1 o
   3   1  10   2031.90   1267.60    404.70   59%1 o
   3   2  10   1306.60   1912.90    443.80   59%1 o
   3   3  10   1354.20   1327.80    393.50   59%1 o
   3   5  11     17.68    -14.20    165.10   59%1 <
  -4   0 -12   1438.00    530.00    230.40   59%1 <
  -4   1 -12     52.22    -33.70    145.20   59%1 <
  -4  -1 -12    615.19    433.70    192.20   59%1 <
  -3  -6 -10   3311.20   1818.10    329.40   60%1 o
  -3  -5 -10   1128.80    761.80    247.50   60%1 o
  -3  -4 -10    158.22     57.80    260.30   60%1 <
  -3  -3 -10    991.85   1296.30    375.80   60%1 o
  -3   0  -9  12983.00  21060.10   1046.20   60%1 o
  -3   1  -9    317.28    473.70    314.40   60%1 <
  -3   2  -9   2090.20   1594.30    410.40   60%1 o
  -3   5  -8   5366.30   5694.60    617.00   60%1 o
  -3   6  -8   1020.20    375.90    308.10   60%1 <
  -2  -5  -7  18688.00  14533.40    891.10   60%1 o
  -2  -4  -7   7989.00   6135.50    607.60   60%1 o
  -2   1  -6   3105.80   7668.60   1024.30   60%1 o
  -2   5  -5 104440.00 116117.00   2464.60   60%1 o
  -2   6  -5  22638.00  23386.60   1077.50   60%1 o
  -1  -5  -4 281770.00 250796.00   3865.70   60%1 o
  -2  10  -4  15888.00  16923.20    878.20   60%1 o
   1  -1   3  12268.00  33126.10   3158.10   60%1 o
   1   4   4  14870.00  17965.10   1888.00   60%1 o
   2  -8   5   1810.20   2937.20    582.50   60%1 o
   2  -7   5   3182.30   2289.50    580.90   60%1 o
   1   8   5  11188.00   7503.50    725.50   60%1 o
   2  -2   6    185.18   1308.90    809.20   60%1 <
   2   2   7   8974.70   8856.80    814.80   60%1 o
   2   3   7   1311.10    854.80    405.50   60%1 <
   3  -8   8    249.24    -16.10    211.80   60%1 <
   2   7   8  32091.00  36217.70   1331.20   60%1 o
   2   8   8    126.63    144.10    219.40   60%1 <
   3  -4   9  16097.00  16519.90    992.50   60%1 o
   3  -3   9   3013.60   3434.50    524.80   60%1 o
   3   1  10   1115.50   1267.60    404.70   60%1 o
   3   2  10   1248.80   1912.90    443.80   60%1 o
   3   5  11     14.10    -14.20    165.10   60%1 <
  -4   0 -12   1606.80    530.00    230.40   60%1 <
  -4   1 -12     72.83    -33.70    145.20   60%1 <
  -3  -2 -10   1181.70   1816.80    414.00   61%1 o
  -3  -1 -10   2265.90   4263.40    508.90   61%1 o
  -3   2  -9   2606.60   1594.30    410.40   61%1 o
  -3   3  -9   3017.30   2067.60    482.60   61%1 o
  -3   4  -9  15685.00  20121.20   1015.80   61%1 o
  -2  -8  -8    199.71    178.20    209.00   61%1 <
  -2  -7  -8  32582.00  34529.80   1334.20   61%1 o
  -3   7  -8   1784.20    477.90    236.90   61%1 <
  -2  -3  -7   1661.60    824.90    413.60   61%1 <
  -2  -2  -7  11182.00   8943.50    814.60   61%1 o
  -2   2  -6    663.48   1331.80    800.70   61%1 <
  -1  -9  -5  29240.00  35043.20   1329.40   61%1 o
  -1  -8  -5   8033.60  13124.60    904.90   61%1 o
  -2   6  -5  23825.00  23386.60   1077.50   61%1 o
  -1  -3  -4 199770.00 166517.00   3418.10   61%1 o
  -2  10  -4  15365.00  16923.20    878.20   61%1 o
  -1   1  -3  28716.00  22793.40   3288.90   61%1 o
   1   3   4 193830.00 170091.00   3539.20   61%1 o
   2  -9   5 122910.00 144445.00   2783.60   61%1 o
   2  -8   5   2579.80   2937.20    582.50   61%1 o
   1   6   5    651.86    336.00    440.50   61%1 <
   2  -4   6   4514.40   6849.00    680.00   61%1 o
   2  -3   6  16354.00  15685.30   1008.30   61%1 o
   1  10   6   3792.80   1378.20    331.10   61%1 o
   2   1   7  48791.00  54450.70   1794.80   61%1 o
   2   5   8    453.15    118.80    373.80   61%1 <
   3  -6   9   2336.70   5208.00    512.80   61%1 o
   3  -5   9   1160.30    329.60    333.40   61%1 <
   2   8   9    679.44     36.10    201.80   61%1 <
   3  -2  10    984.54   1923.80    486.40   61%1 o
   3  -1  10   1484.10   1652.00    424.40   61%1 o
   3   2  11     58.58    -24.30    227.10   61%1 <
   3   3  11     45.63    -93.80    212.50   61%1 <
   3   4  11   2284.40   2601.20    384.40   61%1 o
  -3  -5 -11     20.00     25.80    165.70   61%1 <
  -3  -5 -11     17.35     25.80    165.70   62%1 <
  -3  -4 -11   3204.10   2073.90    335.20   62%1 o
  -3  -1 -10   2241.40   4263.40    508.90   62%1 o
  -3   1 -10   1305.30   2906.80    483.60   62%1 o
  -3   4  -9  16164.00  20121.20   1015.80   62%1 o
  -3   5  -9    751.90   2074.60    382.00   62%1 o
  -2  -7  -8  33049.00  34529.80   1334.20   62%1 o
  -2  -6  -8   1039.60   2363.90    517.30   62%1 o
  -2  -5  -8    327.26    472.60    328.70   62%1 <
  -3   8  -8    424.38     -6.00    182.60   62%1 <
  -2  -2  -7  12324.00   8943.50    814.60   62%1 o
  -2  -1  -7  51029.00  49072.00   1660.60   62%1 o
  -2   3  -6   5851.10  14912.70   1036.70   62%1 o
  -1  -8  -5   9707.40  13124.60    904.90   62%1 o
  -1  -7  -5    682.32    680.10    460.30   62%1 <
  -2   7  -5   3369.90   2745.60    544.50   62%1 o
  -1  -3  -4 203060.00 166517.00   3418.10   62%1 o
  -2  10  -4  15905.00  16923.20    878.20   62%1 o
   1  -2   3  13312.00  29257.10   3022.00   62%1 o
   0  11   3    501.25    278.60    375.50   62%1 <
   1   2   4  10650.00  12367.90   2048.50   62%1 o
   2 -10   5   3085.50    916.50    318.50   62%1 <
   2  -9   5 125170.00 144445.00   2783.60   62%1 o
   1   6   5    624.81    336.00    440.50   62%1 <
   2  -5   6    729.90    543.30    400.40   62%1 <
   2  -4   6   5275.90   6849.00    680.00   62%1 o
   1   9   6     42.74    566.40    291.50   62%1 <
   2   3   8    152.34    162.40    278.20   62%1 <
   2   4   8   1260.20    626.20    369.80   62%1 <
   3  -7   9   5297.60   3075.10    419.60   62%1 o
   3  -6   9   2461.00   5208.00    512.80   62%1 o
   2   7   9  15185.00  13115.10    771.10   62%1 o
   2   8   9    691.10     36.10    201.80   62%1 <
   3  -3  10   1393.40   1211.00    371.10   62%1 o
   3  -2  10    931.41   1923.80    486.40   62%1 o
   3   1  11   3717.20   1771.90    411.50   62%1 o
   3   2  11     39.74    -24.30    227.10   62%1 <
  -3  -3 -11     20.17     21.10    170.80   62%1 <
   3   4  12    151.30     39.20    144.90   62%1 <
  -3  -3 -11      8.88     21.10    170.80   63%1 <
  -3  -2 -11    105.96    -81.80    200.90   63%1 <
  -3  -1 -11   2041.90   2209.40    397.30   63%1 o
  -3   2 -10   1217.20   1580.30    380.50   63%1 o
  -3   3 -10   1468.90   2082.80    399.60   63%1 o
  -3   6  -9   2608.80    362.90    214.90   63%1 <
  -3   7  -9   5915.60   3607.20    423.50   63%1 o
  -2  -5  -8    333.88    472.60    328.70   63%1 <
  -2  -4  -8    768.64    708.20    322.60   63%1 <
  -2   1  -7  46607.00  56005.10   1711.50   63%1 o
  -2   4  -6   4548.30   4306.60    586.60   63%1 o
  -2   5  -6    830.98    347.00    351.20   63%1 <
  -1  -7  -5   1347.60    680.10    460.30   63%1 <
  -2   8  -5   3117.20   2978.20    519.60   63%1 o
  -2   9  -5 135280.00 160379.00   2845.70   63%1 o
  -1  -2  -4  12918.00  13461.80   2037.10   63%1 o
   1  -8   2    885.39   2710.60    680.50   63%1 o
   1  -3   3  71305.00  73796.80   2939.90   63%1 o
   1   1   4  81508.00  54993.00   2593.40   63%1 o
   1   5   5   6252.40   6147.60    734.60   63%1 o
   2  -7   6   7568.80   5408.60    624.70   63%1 o
   2  -6   6   1022.10   1460.10    398.50   63%1 o
   1   9   6    125.02    566.40    291.50   63%1 <
   2  -2   7  11118.00   8373.80    747.80   63%1 o
   2  -1   7  45321.00  51412.90   1714.80   63%1 o
   2   2   8  12282.00  12062.30    862.00   63%1 o
   2   3   8    218.79    162.40    278.20   63%1 <
   2   6   9   2222.30   2451.60    406.40   63%1 o
   2   7   9  15427.00  13115.10    771.10   63%1 o
   3  -6  10   3613.80   1118.10    282.80   63%1 o
   3  -5  10    948.82   1188.80    296.90   63%1 o
   3  -4  10    478.40    452.90    268.90   63%1 <
   3  -1  11   2700.00   2176.80    404.70   63%1 o
   3   0  11  19406.00  22311.40   1094.60   63%1 o
   3   2  12   7281.40   5919.70    531.40   63%1 o
   3   3  12     90.93    -11.00    180.70   63%1 <
   3   4  12    228.88     39.20    144.90   63%1 <
   3  -2  11    165.54    142.70    204.20   63%1 <
  -3  -4 -12    229.14     51.00    164.70   64%1 <
  -3  -1 -11   2489.60   2209.40    397.30   64%1 o
  -3   0 -11  20339.00  22156.90   1062.10   64%1 o
  -3   1 -11   2768.90   1840.30    376.70   64%1 o
  -3   3 -10   1518.20   2082.80    399.60   64%1 o
  -3   4 -10    530.14    193.70    230.40   64%1 <
  -3   5 -10   1011.30    178.80    224.10   64%1 <
  -2  -8  -9    715.08    -65.20    183.00   64%1 <
  -2  -7  -9  15885.00  13439.20    789.00   64%1 o
  -3   7  -9   6465.10   3607.20    423.50   64%1 o
  -2  -4  -8   1081.50    708.20    322.60   64%1 <
  -2  -3  -8    191.85   -585.90    377.90   64%1 <
  -2  -2  -8  15477.00  13346.80    824.30   64%1 o
  -2   1  -7  50269.00  56005.10   1711.50   64%1 o
  -2   2  -7  10800.00   8778.30    723.70   64%1 o
  -2   5  -6    735.14    347.00    351.20   64%1 <
  -2   6  -6    677.29    424.50    355.00   64%1 <
  -1  -7  -5   1962.80    680.10    460.30   64%1 <
  -1  -6  -5   1549.40   2304.90    510.60   64%1 o
  -2   9  -5 145910.00 160379.00   2845.70   64%1 o
  -1  -1  -4  80514.00  51688.20   2780.40   64%1 o
  -1   3  -3  77139.00  85514.40   2978.90   64%1 o
  -1   7  -2  14199.00  18357.30   1151.60   64%1 o
   1  -9   2  15510.00  29762.40   1390.20   64%1 o
   1   1   4  83225.00  54993.00   2593.40   64%1 o
   1   5   5   6115.90   6147.60    734.60   64%1 o
   2  -9   6  25106.00  51317.20   1504.60   64%1 o
   2  -8   6   2809.00   1318.80    422.70   64%1 o
   2  -7   6   7733.10   5408.60    624.70   64%1 o
   1   8   6    365.15    800.50    463.20   64%1 <
   1   9   6    212.10    566.40    291.50   64%1 <
   2  -3   7   2283.60    663.10    371.10   64%1 <
   2  -2   7  13533.00   8373.80    747.80   64%1 o
   2   1   8    496.08   1030.70    399.60   64%1 <
   2   2   8  12378.00  12062.30    862.00   64%1 o
   2   5   9  18388.00  19432.20   1009.00   64%1 o
   2   6   9   2454.20   2451.60    406.40   64%1 o
   3  -6  10   3627.90   1118.10    282.80   64%1 o
   3  -4  11   2750.40   2038.40    335.50   64%1 o
   3  -3  11     22.02     -7.70    198.80   64%1 <
   3  -2  11    232.79    142.70    204.20   64%1 <
   3   1  12    179.44    119.50    184.90   64%1 <
   3   2  12   7740.60   5919.70    531.40   64%1 o
   3   3  12     75.50    -11.00    180.70   64%1 <
  -3  -4 -12    308.18     51.00    164.70   65%1 <
  -3  -3 -12     19.65     12.80    141.40   65%1 <
  -3  -2 -12   6961.80   6124.80    542.50   65%1 o
  -3   0 -11  17534.00  22156.90   1062.10   65%1 o
  -3   1 -11   2726.20   1840.30    376.70   65%1 o
  -3   2 -11     77.05     31.90    221.30   65%1 <
  -3   5 -10    995.90    178.80    224.10   65%1 <
  -3   6 -10   3418.10    688.60    234.80   65%1 <
  -2  -7  -9  15512.00  13439.20    789.00   65%1 o
  -2  -6  -9   2359.70   2602.20    423.50   65%1 o
  -2  -2  -8  11081.00  13346.80    824.30   65%1 o
  -2  -1  -8    454.25   1385.60    389.10   65%1 o
  -2   2  -7   7920.60   8778.30    723.70   65%1 o
  -2   3  -7   1217.40   1316.10    364.60   65%1 o
  -1 -10  -6   3363.00   1805.20    347.90   65%1 o
  -2   6  -6    732.34    424.50    355.00   65%1 <
  -1  -5  -5   8186.30   5523.30    746.10   65%1 o
  -2  10  -5   4068.40   1169.40    315.70   65%1 o
  -1  -1  -4  71230.00  51688.20   2780.40   65%1 o
  -1   7  -2  12195.00  18357.30   1151.60   65%1 o
   1  -9   2  28563.00  29762.40   1390.20   65%1 o
   1  -4   3 238350.00 211793.00   4071.30   65%1 o
   1   4   5  20894.00  27304.90   1535.40   65%1 o
   2  -9   6  26303.00  51317.20   1504.60   65%1 o
   2  -8   6   2729.00   1318.80    422.70   65%1 o
   1   7   6   5650.40   9292.40    723.50   65%1 o
   1   8   6    359.42    800.50    463.20   65%1 <
   2  -5   7  16972.00  13670.80    846.30   65%1 o
   2  -4   7   5770.90   5142.60    599.80   65%1 o
   2  -3   7    995.73    663.10    371.10   65%1 <
   1  10   7  14416.00   8040.20    615.20   65%1 o
   2   0   8  26614.00  26623.60   1224.80   65%1 o
   2   1   8    535.58   1030.70    399.60   65%1 <
   2   3   9   6890.00   6036.90    616.10   65%1 o
   2   4   9  19276.00  29511.30   1211.80   65%1 o
   2   7  10   2288.00   1226.90    304.50   65%1 o
   3  -5  11    563.71    409.00    212.90   65%1 <
   3  -4  11   2908.00   2038.40    335.50   65%1 o
   3  -3  11     17.76     -7.70    198.80   65%1 <
   3  -1  12    159.57    227.80    194.20   65%1 <
   3   1  12    161.28    119.50    184.90   65%1 <
   1  -4   3 248220.00 211793.00   4071.30   66%1 o
   1   3   5   3213.40   5765.30   1434.00   66%1 o
   2 -10   6    383.73    275.40    239.10   66%1 <
   2  -9   6  26776.00  51317.20   1504.60   66%1 o
   1   6   6  16659.00  14485.50    880.70   66%1 o
   2  -6   7  10222.00  10531.00    766.40   66%1 o
   2  -5   7  17130.00  13670.80    846.30   66%1 o
   1   9   7   7439.50   7533.10    610.50   66%1 o
   2  -2   8  14945.00  13229.30    829.10   66%1 o
   2   2   9   3951.50   2601.60    465.90   66%1 o
   2   5  10    146.92   1008.40    327.80   66%1 o
   2   6  10    504.29    136.90    199.70   66%1 <
   3  -4  12    152.30    692.80    230.20   66%1 o
   3  -3  12     44.29    148.90    184.70   66%1 <
   3   0  13   3135.90   1512.90    294.60   66%1 o
  -3  -2 -12   6710.70   6124.80    542.50   66%1 o
  -3  -1 -12    170.63    358.10    185.20   66%1 <
  -3   2 -11    158.21     31.90    221.30   66%1 <
  -3   3 -11    129.10     40.80    155.50   66%1 <
  -3   4 -11   1498.40   1107.10    268.30   66%1 o
  -3   6 -10   3613.00    688.60    234.80   66%1 <
  -2  -5  -9  14367.00  17843.50    983.90   66%1 o
  -2  -4  -9  19938.00  24236.10   1126.50   66%1 o
  -2  -3  -9   5932.00   8633.90    652.90   66%1 o
  -2  -1  -8    544.77   1385.60    389.10   66%1 o
  -2   0  -8  24658.00  26739.00   1212.60   66%1 o
  -2   3  -7   1008.50   1316.10    364.60   66%1 o
  -2   4  -7   7510.20   4760.30    508.90   66%1 o
  -1  -9  -6    625.73   3799.60    481.50   66%1 o
  -1  -8  -6    269.82   1781.30    544.90   66%1 o
  -2   7  -6   5946.90   6271.80    612.50   66%1 o
  -1  -4  -5  27164.00  24214.10   1581.00   66%1 o
  -2  10  -5   2964.40   1169.40    315.70   66%1 o
  -1   4  -3 238030.00 248598.00   4163.30   66%1 o
  -1   7  -2  20199.00  18357.30   1151.60   66%1 o
   2  -1   8    514.49    903.20    398.10   66%1 <
   2   3   9   6814.40   6036.90    616.10   66%1 o
   3  -5  11    144.42    409.00    212.90   66%1 <
   3  -2  12   7269.50   7691.50    591.80   66%1 o
   3  -1  12    466.76    227.80    194.20   66%1 <
   3   1  13   1182.40    528.80    204.00   66%1 <
   1  -5   3 472650.00 461076.00   5310.50   67%1 o
   1  -1   4  65952.00  45684.30   2524.30   67%1 o
   1   2   5  92927.00  86368.60   2741.80   67%1 o
   1   3   5   1746.60   5765.30   1434.00   67%1 o
   1   6   6  14110.00  14485.50    880.70   67%1 o
   2  -7   7   1973.10   3741.50    568.80   67%1 o
   2  -6   7   9551.30  10531.00    766.40   67%1 o
   1   9   7   9498.40   7533.10    610.50   67%1 o
   2  -3   8    643.30   4344.90    525.40   67%1 o
   2  -2   8  11731.00  13229.30    829.10   67%1 o
   2   1   9  27930.00  31499.80   1301.20   67%1 o
   2   2   9   2428.50   2601.60    465.90   67%1 o
   2   4  10  21099.00  21324.20   1037.70   67%1 o
   2   5  10    211.58   1008.40    327.80   67%1 o
   3  -4  12    563.53    692.80    230.20   67%1 o
   3  -3  12    139.37    148.90    184.70   67%1 <
   3  -1  13   1106.50   1589.50    289.90   67%1 o
   3   0  13   2605.10   1512.90    294.60   67%1 o
  -3   2 -12   6648.40   5296.40    512.00   67%1 o
  -3   5 -11    105.68     15.30    163.00   67%1 <
  -2  -7 -10   2318.80   1661.30    320.40   67%1 o
  -2  -2  -9   2883.40   2809.40    488.80   67%1 o
  -2   5  -7  14559.00  10825.50    756.50   67%1 o
  -1  -8  -6    523.36   1781.30    544.90   67%1 o
  -1  -7  -6   5473.30   7258.40    695.50   67%1 o
  -2   8  -6   2309.60   1659.30    415.70   67%1 o
  -1  -3  -5   3747.90   6336.70   1450.40   67%1 o
  -1   1  -4  66646.00  54588.60   2776.70   67%1 o
  -1   4  -3 223250.00 248598.00   4163.30   67%1 o
  -3   1 -12    375.35    164.10    168.00   67%1 <
  -3   4 -11   2169.40   1107.10    268.30   67%1 o
  -2  -4  -9  18065.00  24236.10   1126.50   67%1 o
  -2  -3  -9   6905.10   8633.90    652.90   67%1 o
  -2   0  -8  23754.00  26739.00   1212.60   67%1 o
  -2   1  -8    544.26   1096.20    355.30   67%1 o
  -2   4  -7   6513.90   4760.30    508.90   67%1 o
  -1  -4  -5  20003.00  24214.10   1581.00   67%1 o
   3   1  13   1003.10    528.80    204.00   67%1 <
   0   9   3  17807.00  23319.80   1138.60   68%1 o
   1  -2   4  19039.00  25658.10   2217.70   68%1 o
   1   1   5  49467.00  37822.80   2186.40   68%1 o
   1   2   5  88535.00  86368.60   2741.80   68%1 o
   1   5   6   4588.90   7215.10    754.80   68%1 o
   2  -8   7    244.32    557.50    296.20   68%1 <
   2  -7   7   2366.10   3741.50    568.80   68%1 o
   1   7   7   4422.40   5839.70    654.00   68%1 o
   1   8   7   2212.60   3024.80    462.40   68%1 o
   2  -5   8    891.78    902.10    389.60   68%1 <
   2  -4   8    895.32   1408.50    397.20   68%1 o
   2  -3   8   4518.10   4344.90    525.40   68%1 o
   2  -1   9  27665.00  27853.70   1180.70   68%1 o
   2   2  10   3272.40   3562.00    536.00   68%1 o
   2   3  10  11107.00   9388.00    785.30   68%1 o
   2   5  11    243.39    853.90    256.00   68%1 o
   2   6  11   1663.70   2275.60    353.20   68%1 o
  -3  -1 -13   1208.00    400.90    212.40   68%1 <
  -3   0 -13   2569.50    966.20    254.30   68%1 o
  -3   1 -13   1276.80   1904.10    324.40   68%1 o
  -3   2 -12   6024.20   5296.40    512.00   68%1 o
  -3   3 -12    107.32     63.00    166.20   68%1 <
  -3   4 -12   1130.40    289.80    194.60   68%1 <
  -2  -6 -10    273.67    161.40    185.40   68%1 <
  -2  -5 -10    527.69    719.10    339.80   68%1 <
  -2  -4 -10  20344.00  26173.50   1185.90   68%1 o
  -2  -2  -9   2600.10   2809.40    488.80   68%1 o
  -2  -1  -9  22436.00  32964.20   1298.30   68%1 o
  -2   2  -8  15870.00  17352.10    958.00   68%1 o
  -2   3  -8    772.88   9029.40    705.80   68%1 o
  -1 -10  -7  11861.00   8727.10    638.70   68%1 o
  -2   5  -7  15668.00  10825.50    756.50   68%1 o
  -2   6  -7   7175.60   8181.70    660.20   68%1 o
  -1  -6  -6  18216.00  14869.70    957.40   68%1 o
  -2   8  -6   4078.60   1659.30    415.70   68%1 o
  -2   9  -6  18825.00  14920.30    822.20   68%1 o
  -1  -2  -5  92814.00  97942.70   2715.90   68%1 o
  -1   1  -4  69501.00  54588.60   2776.70   68%1 o
   1  -6   3  51266.00  49102.40   1812.70   69%1 o
   0   9   3  23105.00  23319.80   1138.60   69%1 o
   1  -3   4 140510.00 151886.00   3360.40   69%1 o
   1  -2   4  12998.00  25658.10   2217.70   69%1 o
   1   1   5  44154.00  37822.80   2186.40   69%1 o
   1   4   6   9244.10  12786.80    992.00   69%1 o
   2  -9   7   4761.10   1638.90    329.70   69%1 o
   1   7   7   4142.10   5839.70    654.00   69%1 o
   2  -6   8    439.81   2127.10    435.00   69%1 o
   2  -5   8    891.93    902.10    389.60   69%1 <
   1   9   8    425.60    356.20    230.20   69%1 <
   2  -3   9   8139.00   9179.80    752.00   69%1 o
   2  -2   9   2342.40   3564.10    514.90   69%1 o
   2  -1   9  27179.00  27853.70   1180.70   69%1 o
   2   0  10   2861.80   2968.70    526.20   69%1 o
   2   1  10  37235.00  33862.30   1308.70   69%1 o
   2   2  10   2856.70   3562.00    536.00   69%1 o
   2   3  11   1900.90   1858.60    391.40   69%1 o
   2   4  11   7680.00  13167.20    786.30   69%1 o
   2   5  11   1136.20    853.90    256.00   69%1 o
  -3   1 -13   3884.70   1904.10    324.40   69%1 o
  -3   4 -12    884.40    289.80    194.60   69%1 <
  -2  -6 -11   3699.80   2885.60    392.60   69%1 o
  -2  -4 -10  18740.00  26173.50   1185.90   69%1 o
  -2  -3 -10   7972.40   8844.50    753.30   69%1 o
  -2   1  -9  28821.00  22501.30   1095.60   69%1 o
  -2   3  -8   1705.80   9029.40    705.80   69%1 o
  -2   4  -8    556.84   2460.70    447.20   69%1 o
  -1 -10  -7  11758.00   8727.10    638.70   69%1 o
  -1  -9  -7   7950.80   8927.20    646.30   69%1 o
  -2   6  -7   4285.80   8181.70    660.20   69%1 o
  -2   7  -7   3020.70   4335.80    533.20   69%1 o
  -1  -5  -6   2686.60   3650.00    579.40   69%1 o
  -2   9  -6  24358.00  14920.30    822.20   69%1 o
  -2  10  -6    483.46    414.50    269.00   69%1 <
  -1  -2  -5  91296.00  97942.70   2715.90   69%1 o
  -1  -1  -5  44859.00  40530.80   2161.70   69%1 o
  -1   2  -4  26150.00  36167.30   2298.30   69%1 o
  -1   5  -3 436970.00 381499.00   4844.00   69%1 o
  -1   8  -2  61898.00  81939.80   2032.60   69%1 o
  -2  -6 -11   3644.60   2885.60    392.60   70%1 o
  -2  -5 -11    699.51    199.00    206.40   70%1 <
  -2  -4 -11   9895.70  12138.40    773.60   70%1 o
  -2  -2 -10   3939.60   3396.00    522.40   70%1 o
  -2  -1 -10  28424.00  32348.20   1308.20   70%1 o
  -2   1  -9  26378.00  22501.30   1095.60   70%1 o
  -2   2  -9   2399.80   6820.40    630.00   70%1 o
  -2   3  -9   9775.50  10834.70    767.30   70%1 o
  -2   5  -8   1036.70   1319.20    381.60   70%1 o
  -2   6  -8   4032.20   5663.50    587.10   70%1 o
  -1  -9  -7  10561.00   8927.20    646.30   70%1 o
  -1  -8  -7   1755.00    478.00    347.20   70%1 <
  -2   8  -7   1138.90   1960.90    367.60   70%1 o
  -1  -4  -6   8720.30  10507.00    940.40   70%1 o
  -1  -1  -5  44279.00  40530.80   2161.70   70%1 o
  -1   0  -5 112710.00 100659.00   2889.50   70%1 o
  -1   3  -4 164660.00 129114.00   3138.00   70%1 o
  -1   6  -3  53824.00  69256.50   2105.00   70%1 o
   1  -7   3   4165.70   8980.80    880.00   70%1 o
   1  -4   4  10653.00  19797.40   1971.70   70%1 o
   1  -3   4 163300.00 151886.00   3360.40   70%1 o
   1   0   5 111260.00 116893.00   3047.20   70%1 o
   1   3   6  40094.00  38677.70   1724.10   70%1 o
   1   6   7   7814.30  13158.10    845.00   70%1 o
   2  -9   8   5560.40   1751.90    327.60   70%1 o
   2  -8   8    157.34    160.80    230.30   70%1 <
   2  -7   8  29928.00  28265.20   1151.00   70%1 o
   1   8   8  13627.00  11203.30    727.40   70%1 o
   1   9   8    414.52    356.20    230.20   70%1 <
   2  -5   9  13208.00  13726.30    960.40   70%1 o
   2  -4   9  15313.00  24650.30   1166.60   70%1 o
   2  -3   9   8669.10   9179.80    752.00   70%1 o
   2  -1  10  25190.00  36203.90   1363.40   70%1 o
   2   0  10   2022.60   2968.70    526.20   70%1 o
   2   2  11   6641.40  13065.40    830.50   70%1 o
   2   3  11   2497.90   1858.60    391.40   70%1 o
   2   4  12   8081.60   6050.50    527.90   70%1 o
   2   5  12   1613.20   2743.60    377.90   70%1 o
  -2  -5 -11    546.11    199.00    206.40   71%1 <
  -2  -4 -11   8987.50  12138.40    773.60   71%1 o
  -2  -3 -11   2121.90   1079.50    371.70   71%1 <
  -2  -1 -10  27829.00  32348.20   1308.20   71%1 o
  -2   0 -10   4668.30   3135.50    456.90   71%1 o
  -2   2  -9   6197.50   6820.40    630.00   71%1 o
  -2   3  -9  13366.00  10834.70    767.30   71%1 o
  -2   5  -8   1176.00   1319.20    381.60   71%1 o
  -2   6  -8   2161.80   5663.50    587.10   71%1 o
  -1  -7  -7   6081.50   6096.40    631.10   71%1 o
  -1  -6  -7   9331.90   8566.10    734.40   71%1 o
  -2   8  -7   2162.10   1960.90    367.60   71%1 o
  -2   9  -7   6097.90   1917.50    345.00   71%1 o
  -1  -3  -6  14385.00  26219.30   1451.50   71%1 o
  -1   0  -5 103180.00 100659.00   2889.50   71%1 o
  -1   3  -4 183890.00 129114.00   3138.00   71%1 o
  -1   6  -3  55536.00  69256.50   2105.00   71%1 o
   1 -11   2    283.29    401.80    379.70   71%1 <
   1  -7   3   5389.90   8980.80    880.00   71%1 o
   1  -4   4   9527.60  19797.40   1971.70   71%1 o
   1  -1   5  63798.00  46462.50   2254.70   71%1 o
   1   2   6  52355.00  54676.00   2204.30   71%1 o
   1   5   7  10751.00  20403.60   1036.50   71%1 o
   2  -9   8   3938.10   1751.90    327.60   71%1 o
   2  -8   8    211.87    160.80    230.30   71%1 <
   1   7   8   3805.20   2352.50    495.10   71%1 o
   1   8   8  10793.00  11203.30    727.40   71%1 o
   2  -6   9   4592.10   5061.60    583.60   71%1 o
   2  -5   9   8769.70  13726.30    960.40   71%1 o
   2  -4   9  16802.00  24650.30   1166.60   71%1 o
   2  -3  10   8368.30   9830.60    767.70   71%1 o
   2  -2  10   5814.50   3564.40    559.40   71%1 o
   2  -1  10  37990.00  36203.90   1363.40   71%1 o
   2   1  11   2904.70   3459.90    531.10   71%1 o
   2   2  11   6867.40  13065.40    830.50   71%1 o
   2   3  12    857.01    372.70    238.10   71%1 <
   2   4  12   4501.80   6050.50    527.90   71%1 o
   2   5  12   2215.30   2743.60    377.90   71%1 o
  -2  -5 -12   4125.70   1790.40    302.10   72%1 o
  -2  -3 -11   2778.40   1079.50    371.70   72%1 <
  -2  -2 -11   2926.80   8121.00    713.00   72%1 o
  -2  -1 -11   2810.70   3111.20    516.20   72%1 o
  -2   1 -10  25449.00  37373.90   1375.30   72%1 o
  -2   2 -10   5942.40   4518.60    536.60   72%1 o
  -2   4  -9  36951.00  29854.50   1254.90   72%1 o
  -2   5  -9  13866.00  10403.20    774.40   72%1 o
  -2   7  -8  21456.00  25222.10   1069.70   72%1 o
  -2   8  -8   1334.10    822.20    258.30   72%1 o
  -1  -7  -7   3512.40   6096.40    631.10   72%1 o
  -1  -6  -7  10313.00   8566.10    734.40   72%1 o
  -1  -3  -6  15185.00  26219.30   1451.50   72%1 o
  -1  -2  -6  70329.00  54026.20   2108.00   72%1 o
  -1   1  -5  50190.00  34637.50   2137.20   72%1 o
  -1   4  -4  17958.00  18085.90   1991.60   72%1 o
  -1   7  -3  11300.00  10832.30    864.70   72%1 o
   1  -9   3   8780.90  19763.00   1093.80   72%1 o
   1  -5   4 216130.00 179128.00   3256.10   72%1 o
   0  11   4   3897.30   9796.30    702.40   72%1 o
   1  -1   5  32754.00  46462.50   2254.70   72%1 o
   1   1   6  29025.00  31464.10   1880.30   72%1 o
   1   2   6  69607.00  54676.00   2204.30   72%1 o
   1   4   7   1941.50   5630.00    651.10   72%1 o
   1   5   7   5846.00  20403.60   1036.50   72%1 o
   1   7   8   4709.60   2352.50    495.10   72%1 o
   2  -8   9    846.15    209.20    217.40   72%1 <
   2  -7   9  19422.00  15054.20    841.60   72%1 o
   2  -6   9   1585.40   5061.60    583.60   72%1 o
   2  -5  10    551.00   2475.10    475.90   72%1 o
   2  -4  10  17348.00  15577.80    982.10   72%1 o
   2  -3  10   8678.30   9830.60    767.70   72%1 o
   2  -2  11  12247.00  19290.00   1020.00   72%1 o
   2  -1  11  13257.00  10322.60    805.10   72%1 o
   2   1  12  35585.00  41257.60   1447.90   72%1 o
   2   2  12   2307.90   2640.10    385.30   72%1 o
   2   3  12   1002.00    372.70    238.10   72%1 <
  -2  -4 -12   6484.50   4151.80    456.00   73%1 o
  -2  -3 -12   1755.10    884.70    253.80   73%1 o
  -2  -2 -12   2316.30   2877.60    413.80   73%1 o
  -2  -1 -11   3423.00   3111.20    516.20   73%1 o
  -2   1 -11  14290.00  10985.70    792.20   73%1 o
  -2   2 -10   8566.90   4518.60    536.60   73%1 o
  -2   3 -10  11273.00   7090.10    653.90   73%1 o
  -2   4 -10  17155.00  19556.60   1050.70   73%1 o
  -2   5  -9  13746.00  10403.20    774.40   73%1 o
  -2   6  -9   4319.60   3592.00    495.50   73%1 o
  -1  -9  -8    349.95    392.30    235.20   73%1 <
  -1  -8  -8  17512.00   9002.70    656.70   73%1 o
  -1  -7  -8   3927.70   2441.20    459.40   73%1 o
  -2   8  -8    543.53    822.20    258.30   73%1 o
  -2   9  -8   6549.20   3570.00    429.00   73%1 o
  -1  -5  -7  10887.00  15656.20    916.10   73%1 o
  -1  -4  -7   2262.30   5716.10    633.40   73%1 o
  -1  -1  -6  31816.00  35551.30   1997.50   73%1 o
  -1   2  -5  68302.00  73281.10   2625.10   73%1 o
  -1   5  -4 229350.00 202618.00   3416.10   73%1 o
  -1   7  -3  11169.00  10832.30    864.70   73%1 o
   1  -9   3   9272.60  19763.00   1093.80   73%1 o
   1  -6   4  32774.00  24580.50   1219.80   73%1 o
   0  10   4    395.92    206.90    336.20   73%1 <
   1  -3   5   7641.00   7666.40   1761.30   73%1 o
   1  -2   5  38766.00  88167.90   2693.20   73%1 o
   1   1   6  23497.00  31464.10   1880.30   73%1 o
   1   3   7   4535.50   9825.30    864.90   73%1 o
   1   5   8   1316.30   1362.20    348.10   73%1 o
   1   6   8  16074.00  15038.30    898.10   73%1 o
   2  -8   9    953.84    209.20    217.40   73%1 <
   1   8   9    352.78    111.30    194.00   73%1 <
   2  -7  10   3724.50   3623.60    440.10   73%1 o
   2  -6  10    591.84    109.70    193.50   73%1 <
   2  -5  10   1198.80   2475.10    475.90   73%1 o
   2  -4  11  26798.00  27089.70   1143.30   73%1 o
   2  -3  11   2985.60   1036.30    397.30   73%1 <
   2  -2  11  13474.00  19290.00   1020.00   73%1 o
   2  -1  12  37792.00  44842.80   1535.20   73%1 o
   2   0  12    380.77      4.20    284.10   73%1 <
   2   1  12  40501.00  41257.60   1447.90   73%1 o
   2   2  13   3186.80   2699.00    367.10   73%1 o
   2   3  13    196.38    -22.70    149.40   73%1 <
  -2  -3 -12   1592.80    884.70    253.80   74%1 o
  -2  -2 -12   2108.00   2877.60    413.80   74%1 o
  -2  -1 -12  36258.00  33399.20   1295.00   74%1 o
  -2   1 -11  13949.00  10985.70    792.20   74%1 o
  -2   2 -11   5509.70  11578.30    792.30   74%1 o
  -2   4 -10  16937.00  19556.60   1050.70   74%1 o
  -2   5 -10    180.77   -642.60    265.10   74%1 <
  -2   6  -9   4281.40   3592.00    495.50   74%1 o
  -2   7  -9  21009.00  16878.60    869.80   74%1 o
  -1  -8  -8  15607.00   9002.70    656.70   74%1 o
  -1  -7  -8   3355.00   2441.20    459.40   74%1 o
  -1  -6  -8  19945.00  20882.50    994.20   74%1 o
  -2   9  -8   6458.20   3570.00    429.00   74%1 o
  -1  -4  -7   1563.50   5716.10    633.40   74%1 o
  -1  -3  -7   3287.40   4587.70    657.60   74%1 o
  -1  -1  -6  26486.00  35551.30   1997.50   74%1 o
  -1   2  -5  51562.00  73281.10   2625.10   74%1 o
  -1   3  -5   1881.80   8375.90   1735.00   74%1 o
  -1   5  -4 202620.00 202618.00   3416.10   74%1 o
   0 -10  -3   1332.40   1493.20    493.90   74%1 o
  -1  10  -2  22052.00  14003.90    887.70   74%1 o
   1 -10   3  21039.00  17943.50    939.00   74%1 o
   1  -7   4   3091.70   8596.40    738.60   74%1 o
   1  -6   4  29245.00  24580.50   1219.80   74%1 o
   0  10   4    368.63    206.90    336.20   74%1 <
   1  -3   5   6548.00   7666.40   1761.30   74%1 o
   1  -1   6  13860.00  17051.80   1695.20   74%1 o
   1   2   7   6786.30   7130.50    854.90   74%1 o
   1   3   7   3677.20   9825.30    864.90   74%1 o
   1   4   8  12458.00  14659.70    867.60   74%1 o
   1   5   8    965.03   1362.20    348.10   74%1 o
   1   7   9   4887.30   2096.90    360.20   74%1 o
   1   8   9    250.29    111.30    194.00   74%1 <
   2  -7  10   2860.70   3623.60    440.10   74%1 o
   2  -6  10    507.77    109.70    193.50   74%1 <
   2  -5  11    616.11    151.40    227.40   74%1 <
   2  -3  11   2590.70   1036.30    397.30   74%1 <
   2  -2  12   2900.40   1568.80    343.80   74%1 o
   2  -1  12  33658.00  44842.80   1535.20   74%1 o
   2   0  12    384.13      4.20    284.10   74%1 <
   2   1  13    308.20    430.70    195.60   74%1 <
   2   2  13   3056.30   2699.00    367.10   74%1 o
  -2   1 -12  34330.00  42900.20   1491.20   75%1 o
  -2   4 -11   6579.70   8523.70    661.80   75%1 o
  -2   6 -10    128.15     72.40    214.40   75%1 <
  -2   8  -9    298.81     -6.20    181.80   75%1 <
  -1  -5  -8   5019.40   2197.50    446.50   75%1 o
  -1  -2  -7   5628.90   5793.90    896.00   75%1 o
  -1   1  -6  13980.00   7516.10   1819.10   75%1 o
  -1   3  -5   4690.00   8375.90   1735.00   75%1 o
  -1   6  -4  42017.00  37941.20   1460.20   75%1 o
   0 -10  -3   1566.80   1493.20    493.90   75%1 o
  -1   8  -3  12211.00   7732.40    737.80   75%1 o
   1 -11   3   5268.00   2712.60    457.90   75%1 o
   1  -8   4  18007.00  12831.30    916.70   75%1 o
   1  -7   4   4814.60   8596.40    738.60   75%1 o
   0  10   4    228.88    206.90    336.20   75%1 <
   1  -4   5  21274.00  18823.40   1507.80   75%1 o
   1   1   7  36923.00  45896.60   1758.90   75%1 o
   2  -6  11   3164.80   1414.40    311.30   75%1 o
   2  -4  12   4682.00   2235.90    366.80   75%1 o
   2  -2  13   1956.30   1139.40    279.40   75%1 o
  -2  -3 -13    315.72     55.00    170.70   75%1 <
  -2  -2 -13   6733.90  11699.90    725.70   75%1 o
  -2  -1 -12  36557.00  33399.20   1295.00   75%1 o
  -2   0 -12    520.79    434.90    243.80   75%1 <
  -2   2 -11  11314.00  11578.30    792.30   75%1 o
  -2   3 -11   2840.20   1409.70    382.10   75%1 o
  -2   5 -10    247.35   -642.60    265.10   75%1 <
  -1  -7  -8   2895.10   2441.20    459.40   75%1 o
  -1  -6  -8  17258.00  20882.50    994.20   75%1 o
  -1  -3  -7   3725.70   4587.70    657.60   75%1 o
   1  -1   6  12507.00  17051.80   1695.20   75%1 o
   1   2   7   6252.30   7130.50    854.90   75%1 o
   1   4   8  12060.00  14659.70    867.60   75%1 o
   1   6   9  13604.00  14914.60    901.20   75%1 o
   1   7   9   5272.20   2096.90    360.20   75%1 o
   1   8  10    552.86    499.00    212.20   75%1 <
   2  -5  11    573.24    151.40    227.40   75%1 <
   2  -3  12   1175.50   1066.10    277.90   75%1 o
   2  -2  12   2251.90   1568.80    343.80   75%1 o
   2  -1  13     85.06     83.90    177.20   75%1 <
   2   1  13    327.87    430.70    195.60   75%1 <
  -2  -1 -13    330.83    340.30    201.60   76%1 <
  -2   1 -13     68.33    179.20    186.20   76%1 <
  -2   2 -12   3055.70   2420.10    385.50   76%1 o
  -2   3 -12   1733.60   1281.80    269.40   76%1 o
  -2   4 -11   9070.60   8523.70    661.80   76%1 o
  -2   5 -11    333.11     89.00    195.50   76%1 <
  -2   6 -11   3646.70   1196.40    277.30   76%1 o
  -2   7 -10   1690.00    370.90    225.20   76%1 <
  -1  -8  -9    695.74    108.10    197.90   76%1 <
  -1  -7  -9   2619.30   3031.60    450.00   76%1 o
  -1  -6  -9  16905.00  13447.30    865.20   76%1 o
  -1  -4  -8  12755.00  21232.80   1043.50   76%1 o
  -1  -3  -8   2092.90   5304.00    572.00   76%1 o
  -1  -1  -7  38126.00  38076.50   1644.20   76%1 o
  -1   1  -6  12022.00   7516.10   1819.10   76%1 o
  -1   2  -6  70579.00  70371.50   2351.40   76%1 o
  -1   4  -5  21642.00  21880.20   1384.50   76%1 o
  -1   6  -4  40323.00  37941.20   1460.20   76%1 o
   1 -11   3   4928.50   2712.60    457.90   76%1 o
   1  -8   4   8352.10  12831.30    916.70   76%1 o
   0   9   4    425.29   2814.50    669.50   76%1 o
   1  -5   5   6976.60  13969.50   1010.00   76%1 o
   1  -3   6  14145.00  18313.70   1441.90   76%1 o
   1  -2   6  70102.00  65642.80   2245.00   76%1 o
   1   0   7  43335.00  39767.10   1740.70   76%1 o
   1   2   8  45194.00  46987.30   1587.50   76%1 o
   1   3   8   1261.50   1298.40    428.80   76%1 o
   1   4   9  12081.00  16191.40    907.80   76%1 o
   1   5   9   3626.40   3288.70    461.60   76%1 o
   1   6  10    450.42   1573.60    367.30   76%1 o
   1   7  10   3946.70   1779.60    327.70   76%1 o
   2  -5  12   4143.50   1442.80    300.30   76%1 o
   2  -3  13    262.57     10.20    167.10   76%1 <
   2  -2  13   2271.50   1139.40    279.40   76%1 o
  -2   1 -13     58.30    179.20    186.20   77%1 <
  -2   2 -13   2661.00   1070.40    254.60   77%1 o
  -2   3 -13    309.22     22.70    162.70   77%1 <
  -2   4 -12   5609.50   4172.50    452.80   77%1 o
  -2   5 -12   4827.90   1078.40    268.50   77%1 o
  -2   6 -11   3725.10   1196.40    277.30   77%1 o
  -1  -8 -10   1424.60    547.40    243.00   77%1 <
  -1  -7 -10   5411.20   4641.80    478.30   77%1 o
  -1  -6  -9  16964.00  13447.30    865.20   77%1 o
  -1  -5  -9   1862.20   5667.30    608.70   77%1 o
  -1  -4  -9  10950.00  10342.10    785.00   77%1 o
  -1  -3  -8   1969.20   5304.00    572.00   77%1 o
  -1  -2  -8  44195.00  42273.80   1483.60   77%1 o
  -1   0  -7  43220.00  42995.80   1741.60   77%1 o
  -1   1  -7  27691.00  38035.60   1610.80   77%1 o
  -1   2  -6  68539.00  70371.50   2351.40   77%1 o
  -1   3  -6  12445.00  16528.10   1275.70   77%1 o
  -1   5  -5   5805.70   6587.40    793.20   77%1 o
   0 -11  -4   2473.50   1491.30    393.80   77%1 o
  -1   7  -4   9124.00   5522.00    661.10   77%1 o
   0  -8  -3  88357.00  81310.30   2145.30   77%1 o
  -1   9  -3  10602.00   9164.20    780.30   77%1 o
   1  -9   4  44304.00  46715.70   1582.20   77%1 o
   0   8   4 188450.00 186632.00   3174.80   77%1 o
   1  -6   5   5133.80   6900.10    865.50   77%1 o
   0  10   5  17040.00  17631.30    892.20   77%1 o
   1  -4   6   7503.60   3784.50    777.60   77%1 o
   1  -3   6  13836.00  18313.70   1441.90   77%1 o
   1  -2   7   5352.70   4894.40    814.60   77%1 o
   1  -1   7  27358.00  42739.00   1623.60   77%1 o
   1   1   8   4032.70   1013.10    604.30   77%1 <
   1   3   9    162.05   1138.00    367.60   77%1 o
   1   4   9  11774.00  16191.40    907.80   77%1 o
   1   4  10   6967.70   6707.00    661.10   77%1 o
   1   5  10   7068.80   5709.60    628.90   77%1 o
   1   6  10    505.27   1573.60    367.30   77%1 o
   1   6  11    397.28    434.30    217.80   77%1 <
   1   7  11    703.05    242.20    205.80   77%1 <
  -2   3 -13    230.01     22.70    162.70   78%1 <
  -2   5 -12   3253.50   1078.40    268.50   78%1 o
  -1  -7 -11    283.34     -9.20    190.10   78%1 <
  -1  -6 -10     99.93     42.20    245.70   78%1 <
  -1  -5 -10   6587.10   4118.00    559.20   78%1 o
  -1  -4  -9   9877.10  10342.10    785.00   78%1 o
  -1  -3  -9    126.53    360.80    315.80   78%1 <
  -1  -2  -9   4290.00   3654.50    506.80   78%1 o
  -1  -1  -8   3801.90   2305.20    481.30   78%1 o
  -1   1  -7  25298.00  38035.60   1610.80   78%1 o
  -1   2  -7   6509.40   2647.20    744.80   78%1 o
  -1   3  -6  16577.00  16528.10   1275.70   78%1 o
  -1   4  -6   4892.30   3365.70    613.60   78%1 o
  -1   5  -5   5127.00   6587.40    793.20   78%1 o
   0 -10  -4    737.69   2279.80    469.20   78%1 o
  -1   7  -4  11412.00   5522.00    661.10   78%1 o
   0  -7  -3  15309.00  17791.90   1140.30   78%1 o
  -1   9  -3  10083.00   9164.20    780.30   78%1 o
   1 -10   4    239.77    211.50    300.60   78%1 <
   1  -9   4  43213.00  46715.70   1582.20   78%1 o
   1  -7   5    826.35   2718.00    529.00   78%1 o
   0   9   5   2089.60   2641.70    546.00   78%1 o
   1  -5   6   3497.10   3818.50    605.60   78%1 o
   1  -4   6   6422.70   3784.50    777.60   78%1 o
   1  -3   7   6236.40   7583.20    719.90   78%1 o
   1  -2   7   6185.60   4894.40    814.60   78%1 o
   1  -1   8   5192.70   2379.60    616.50   78%1 o
   1   1   9    246.47    525.90    418.00   78%1 <
   1   2   9   3764.30   4316.20    594.80   78%1 o
   1   3  10   1164.00     65.60    355.70   78%1 <
   1   4  10   6139.30   6707.00    661.10   78%1 o
   1   4  11   8515.70   9097.30    703.40   78%1 o
   1   5  11   1006.00    660.00    319.50   78%1 <
   1   6  12    476.70    981.40    254.00   78%1 o
  -1  -7 -11    179.21     -9.20    190.10   79%1 <
  -1  -6 -11    156.14     60.00    180.80   79%1 <
  -1  -5 -11    705.53    740.80    275.30   79%1 <
  -1  -5 -10   5302.50   4118.00    559.20   79%1 o
  -1  -4 -10   6099.90   7552.50    709.30   79%1 o
  -1  -3 -10    832.34    956.70    355.10   79%1 <
  -1  -2  -9   3694.10   3654.50    506.80   79%1 o
  -1  -1  -9     84.52    418.60    365.40   79%1 <
  -1   1  -8   4606.10   2354.80    527.50   79%1 o
  -1   2  -7   5321.60   2647.20    744.80   79%1 o
  -1   3  -7   6707.70   4976.50    653.90   79%1 o
  -1   4  -6   4246.20   3365.70    613.60   79%1 o
  -1   5  -6   3137.40   5407.10    589.50   79%1 o
  -1   6  -5    866.98   4801.70    629.40   79%1 o
   0  -9  -4    679.38   5851.50    797.80   79%1 o
  -1   8  -4   5420.30   8255.90    729.30   79%1 o
   1 -11   4   8190.20   4313.30    507.50   79%1 o
   0   7   4   4524.50  10356.50    897.10   79%1 o
   1  -9   5  23050.00  18888.30   1015.60   79%1 o
   1  -8   5   5771.30   6414.70    749.20   79%1 o
   0   9   5   2161.60   2641.70    546.00   79%1 o
   1  -6   6  16269.00  13259.80    867.80   79%1 o
   0  10   6  10539.00   6080.40    553.30   79%1 o
   1  -4   7   1568.00   9171.50    709.60   79%1 o
   1  -3   7   5434.80   7583.20    719.90   79%1 o
   1  -2   8  35304.00  30401.00   1320.30   79%1 o
   1  -1   8   4633.30   2379.60    616.50   79%1 o
   1  -1   9    664.24    916.60    436.40   79%1 <
   1   0   9  20193.00  25996.00   1206.60   79%1 o
   1   1   9    101.47    525.90    418.00   79%1 <
   1   1  10   5053.10   4232.30    582.10   79%1 o
   1   2  10  19187.00  20089.60   1070.20   79%1 o
   1   3  11   1128.80   1391.40    434.60   79%1 o
   1   4  11   6778.80   9097.30    703.40   79%1 o
   1   4  12    558.46    749.70    266.20   79%1 <
   1   5  12    503.54    649.00    235.30   79%1 <
   1   6  12    599.18    981.40    254.00   79%1 o
  -1  -6 -12   1177.00   1348.90    284.30   80%1 o
  -1  -5 -12     37.58     44.20    177.00   80%1 <
  -1  -5 -11    958.57    740.80    275.30   80%1 <
  -1  -4 -11   5417.00   6725.60    632.90   80%1 o
  -1  -3 -11   1035.40   1565.60    399.60   80%1 o
  -1  -3 -10   1167.50    956.70    355.10   80%1 <
  -1  -2 -10  20693.00  26875.10   1158.60   80%1 o
  -1  -1 -10   4400.40   3572.80    507.50   80%1 o
  -1  -1  -9     91.21    418.60    365.40   80%1 <
  -1   0  -9  24747.00  25621.90   1173.00   80%1 o
  -1   1  -9    810.78    715.60    387.90   80%1 <
  -1   2  -8  38795.00  29531.30   1297.60   80%1 o
  -1   3  -7   7598.20   4976.50    653.90   80%1 o
  -1   4  -7   1171.90   5772.00    605.20   80%1 o
  -1   5  -6   3592.40   5407.10    589.50   80%1 o
  -1   6  -6  15626.00  14836.50    894.70   80%1 o
  -1   7  -5   3005.40   5624.60    628.90   80%1 o
   0  -8  -4 173380.00 175062.00   3131.20   80%1 o
  -1   9  -4  51766.00  49599.60   1556.00   80%1 o
   0  -6  -3  94162.00  84035.60   2399.70   80%1 o
  -1  10  -3  16318.00   9703.50    744.30   80%1 o
   0   5   3 219370.00 231171.00   4008.80   80%1 o
   1 -10   5   6210.60   3714.10    480.30   80%1 o
   1  -9   5  27290.00  18888.30   1015.60   80%1 o
   0   8   5  45036.00  62782.50   1789.30   80%1 o
   1  -8   6    546.78   1357.10    502.10   80%1 <
   1  -7   6   2983.70   5725.30    611.30   80%1 o
   0   9   6    805.10   3365.60    469.30   80%1 o
   1  -6   7   7445.40  10756.30    782.20   80%1 o
   1  -5   7    681.67    542.20    394.10   80%1 <
   1  -4   8  17345.00  13595.10    834.30   80%1 o
   1  -3   8   1727.20   1263.90    423.10   80%1 <
   1  -2   9   3118.90   3228.70    569.20   80%1 o
   1  -1   9    621.55    916.60    436.40   80%1 <
   1  -1  10   8316.60   8978.30    760.20   80%1 o
   1   1  10   5996.20   4232.30    582.10   80%1 o
   1   1  11  14617.00  15258.30    911.10   80%1 o
   1   2  11   1285.20   1867.20    480.30   80%1 o
   1   2  12  18178.00  18662.90   1008.10   80%1 o
   1   3  12    838.83    305.70    251.90   80%1 <
   1   4  12    572.83    749.70    266.20   80%1 <
   1   4  13   2088.20   4417.80    463.40   80%1 o
  -1  -5 -12     46.19     44.20    177.00   81%1 <
  -1  -4 -12    751.33    703.30    250.70   81%1 <
  -1  -3 -12    861.16   2425.10    386.70   81%1 o
  -1  -2 -11   1732.90   1586.00    404.60   81%1 o
  -1   2  -9   3679.60   4788.50    593.80   81%1 o
  -1   3  -8    951.80    171.80    397.40   81%1 <
  -1   4  -8  20737.00  15849.20    916.00   81%1 o
  -1   5  -7   2327.70   2938.60    504.90   81%1 o
  -1   6  -7  12010.00   8606.30    753.60   81%1 o
  -1   7  -6  10118.00   8105.20    719.40   81%1 o
   0 -10  -5  15688.00  12477.70    781.20   81%1 o
   0  -9  -5   4890.60  12841.10    886.20   81%1 o
  -1   8  -5   4520.90   4035.50    574.20   81%1 o
   0  -7  -4   8163.90  21951.00   1277.60   81%1 o
  -1  10  -4   1468.30   1632.30    364.40   81%1 o
  -1  11  -3   7938.90   4099.60    499.40   81%1 o
   0   7   5   2145.20   4151.40    592.90   81%1 o
   1 -10   6   2158.50   1065.90    303.30   81%1 o
   1  -9   6   1114.20   2088.40    402.60   81%1 o
   0   8   6  30632.00  38491.10   1421.40   81%1 o
   1  -8   7   2348.80   2792.30    499.60   81%1 o
   1  -7   7   1896.80   6477.10    660.00   81%1 o
   0   9   7    799.24    106.90    264.10   81%1 <
   0  10   7   9795.10   9087.80    658.90   81%1 o
   1  -6   8  12594.00   9440.40    748.70   81%1 o
   1  -5   8   1167.80   1335.20    468.30   81%1 <
   1  -4   9   9076.90  16611.30    972.80   81%1 o
   1  -3   9    345.43   2457.80    471.20   81%1 o
   1  -2  10  17229.00  18380.50   1001.50   81%1 o
   1  -1  11  10797.00  10713.50    820.20   81%1 o
   1   0  11    481.18   2819.10    504.40   81%1 o
   1   1  12   4662.70   6119.80    620.30   81%1 o
   1   2  13   2174.00   3372.20    438.20   81%1 o
   1   3  13   1743.50    976.60    269.30   81%1 o
  -1  -4 -13   4102.30   3512.10    416.30   81%1 o
  -1  -2 -12  20136.00  13062.30    857.70   81%1 o
  -1  -1 -11  10740.00  10604.80    761.50   81%1 o
  -1   1 -10   9785.10  12603.80    835.80   81%1 o
  -1   3  -9   2854.20   2324.40    444.00   81%1 o
   1  -5   9   2402.20   2281.90    444.80   81%1 o
   1  -3  10   4565.20   2362.20    475.30   81%1 o
   1  -2  11   2087.60   1274.90    498.20   81%1 <
   1   1  13   1044.40    346.20    220.90   81%1 <
   1   2  14   3266.50    756.10    249.70   81%1 o
  -1  -4 -13   4402.60   3512.10    416.30   82%1 o
  -1  -4 -12    821.80    703.30    250.70   82%1 <
  -1  -3 -12    911.29   2425.10    386.70   82%1 o
  -1  -2 -12  21699.00  13062.30    857.70   82%1 o
  -1  -2 -11   1873.40   1586.00    404.60   82%1 o
  -1  -1 -11  11262.00  10604.80    761.50   82%1 o
  -1   0 -11    930.65   1755.90    430.80   82%1 o
  -1   1 -10  10676.00  12603.80    835.80   82%1 o
  -1   2  -9   3912.70   4788.50    593.80   82%1 o
  -1   3  -9   3016.30   2324.40    444.00   82%1 o
  -1   4  -8  21484.00  15849.20    916.00   82%1 o
  -1   5  -7   2301.30   2938.60    504.90   82%1 o
  -1   6  -7  13066.00   8606.30    753.60   82%1 o
  -1   7  -6  11064.00   8105.20    719.40   82%1 o
   0 -10  -5  16945.00  12477.70    781.20   82%1 o
   0  -9  -5   5341.70  12841.10    886.20   82%1 o
  -1   8  -5   5059.20   4035.50    574.20   82%1 o
   0  -7  -4   9056.50  21951.00   1277.60   82%1 o
  -1  10  -4   1387.50   1632.30    364.40   82%1 o
  -1  11  -3   9100.20   4099.60    499.40   82%1 o
   0   6   4  39014.00  92232.60   2409.90   82%1 o
   0   7   5   2297.00   4151.40    592.90   82%1 o
   1 -10   6   2371.50   1065.90    303.30   82%1 o
   1  -9   6   1220.80   2088.40    402.60   82%1 o
   0   8   6  33453.00  38491.10   1421.40   82%1 o
   1  -8   7   2473.00   2792.30    499.60   82%1 o
   1  -7   7   2067.80   6477.10    660.00   82%1 o
   0   9   7    905.94    106.90    264.10   82%1 <
   0  10   7  10752.00   9087.80    658.90   82%1 o
   1  -7   8   5740.50   4427.60    557.50   82%1 o
   1  -6   8  13944.00   9440.40    748.70   82%1 o
   1  -5   8   1245.70   1335.20    468.30   82%1 <
   1  -5   9   2565.30   2281.90    444.80   82%1 o
   1  -4   9   9481.40  16611.30    972.80   82%1 o
   1  -4  10  11581.00   4872.10    649.20   82%1 o
   1  -3  10   4797.80   2362.20    475.30   82%1 o
   1  -2  10  18487.00  18380.50   1001.50   82%1 o
   1  -2  11   2269.60   1274.90    498.20   82%1 <
   1  -1  11  11438.00  10713.50    820.20   82%1 o
   1   0  11    547.47   2819.10    504.40   82%1 o
   1  -1  12   1152.40   3510.70    525.30   82%1 o
   1   1  12   4843.30   6119.80    620.30   82%1 o
   1   0  13   3657.40   3257.70    418.90   82%1 o
   1   1  13   1068.60    346.20    220.90   82%1 <
   1   2  13   2382.30   3372.20    438.20   82%1 o
   1   2  14   3445.40    756.10    249.70   82%1 o
   0   8   7  17540.00  20218.50   1072.40   83%1 o
   0   9   7    749.31    106.90    264.10   83%1 <
   1  -9   8    628.31    236.20    222.00   83%1 <
   1  -8   8  14362.00  11823.90    778.80   83%1 o
   1  -7   8   4139.60   4427.60    557.50   83%1 o
   0   9   8    243.16    470.60    252.90   83%1 <
   1  -8   9    836.12    398.30    239.50   83%1 <
   1  -7   9   8493.10   5245.40    550.90   83%1 o
   1  -6   9  14464.00  12820.60    877.90   83%1 o
   1  -6  10    225.61    400.80    272.80   83%1 <
   1  -5  10  14964.00  17653.70   1017.00   83%1 o
   1  -5  11    438.39    468.10    298.90   83%1 <
   1  -4  11   3781.20   5982.80    636.20   83%1 o
   1  -4  12   1059.00    616.70    243.90   83%1 <
   1  -3  12   1287.20    562.80    321.50   83%1 <
   1  -2  13     92.78     12.10    222.80   83%1 <
   1  -1  14    596.38      1.60    171.30   83%1 <
  -1  -3 -13    342.90   1418.90    293.10   83%1 o
  -1  -2 -13   1244.50   1536.50    308.30   83%1 o
  -1  -1 -13    360.69    771.10    247.20   83%1 o
  -1  -1 -12   1357.10   7009.50    607.50   83%1 o
  -1   0 -11    900.38   1755.90    430.80   83%1 o
  -1   1 -11  11080.00  11955.20    794.60   83%1 o
  -1   2 -11    914.35   1129.80    417.00   83%1 <
  -1   2 -10  17299.00  13725.00    885.30   83%1 o
  -1   3 -10   1744.10   2774.60    479.00   83%1 o
  -1   4  -9  15521.00  14138.70    898.70   83%1 o
  -1   5  -9   4583.10   2872.50    460.60   83%1 o
  -1   5  -8   7416.30   6579.40    659.60   83%1 o
  -1   6  -8  11485.00   9355.10    731.90   83%1 o
  -1   7  -7   3017.30   6284.10    643.80   83%1 o
   0 -10  -6  11509.00  10291.50    721.90   83%1 o
  -1   8  -6    763.72    852.20    485.90   83%1 <
   0  -8  -5  26506.00  36084.00   1493.30   83%1 o
  -1   9  -5  21454.00  15924.20    917.80   83%1 o
   0  -6  -4  31002.00  69780.30   2125.90   83%1 o
   0   4   3   9891.40   6383.40   2562.20   83%1 <
   0   5   4  95439.00  78300.40   2643.20   83%1 o
   0   6   5   8897.20   7322.40    870.00   83%1 o
   0   7   6   1706.00   2987.80    563.90   83%1 o
   1 -10   7   7764.20   3677.80    435.20   83%1 o
   1  -9   7  10924.00   6272.90    560.60   83%1 o
   1  -4  10   9281.80   4872.10    649.20   83%1 o
   1  -3  11   1505.50   6831.80    734.00   83%1 o
   1  -2  12  14331.00  17994.60    933.40   83%1 o
   1  -1  12   1083.60   3510.70    525.30   83%1 o
   1  -1  13    971.49    422.60    219.00   83%1 <
   1   0  13   2755.60   3257.70    418.90   83%1 o
   1   1  14   1748.00   2827.00    372.30   83%1 o
  -1   1 -12    662.69   2340.60    420.90   83%1 o
   0   8   7  18334.00  20218.50   1072.40   84%1 o
   1  -9   8    570.28    236.20    222.00   84%1 <
   1  -8   8  13543.00  11823.90    778.80   84%1 o
   0   8   8   6428.40   4769.90    496.80   84%1 o
   0   9   8    167.60    470.60    252.90   84%1 <
   1  -8   9    215.22    398.30    239.50   84%1 <
   1  -7   9   3468.80   5245.40    550.90   84%1 o
   1  -6   9  13298.00  12820.60    877.90   84%1 o
   0   9   9   1779.30   1273.00    305.70   84%1 o
   1  -7  10   2823.90   2433.90    379.60   84%1 o
   1  -6  10    314.32    400.80    272.80   84%1 <
   1  -5  10   2823.80  17653.70   1017.00   84%1 o
   1  -6  11    120.75   -112.50    191.40   84%1 <
   1  -5  11    622.47    468.10    298.90   84%1 <
   1  -4  11   6656.10   5982.80    636.20   84%1 o
   1  -5  12    196.93    163.20    191.20   84%1 <
   1  -4  12    966.86    616.70    243.90   84%1 <
   1  -3  12   1158.60    562.80    321.50   84%1 <
   1  -4  13   2427.20   1048.70    265.40   84%1 o
   1  -3  13   1232.80    698.00    264.30   84%1 <
   1  -2  13    128.79     12.10    222.80   84%1 <
   1  -2  14   3117.30   1683.10    294.20   84%1 o
   1  -1  14    601.06      1.60    171.30   84%1 <
  -1  -1 -14   1801.30   3010.90    392.40   84%1 o
  -1   2 -12  18266.00  16528.80    938.40   84%1 o
  -1   3 -11   1638.00   2266.10    475.20   84%1 o
  -1   4 -10   6301.60   5210.50    586.70   84%1 o
  -1   6  -8  12610.00   9355.10    731.90   84%1 o
   0 -10  -7  11465.00  12285.90    764.00   84%1 o
  -1   7  -7   2996.30   6284.10    643.80   84%1 o
   0  -9  -6    747.93    870.40    415.80   84%1 <
  -1   8  -6    281.80    852.20    485.90   84%1 <
   0  -7  -5   1861.50   3649.20    623.20   84%1 o
  -1   9  -5  21001.00  15924.20    917.80   84%1 o
   0  -6  -4  31704.00  69780.30   2125.90   84%1 o
   0  -4  -3  10500.00  17908.80   2687.00   84%1 o
   0   5   4  99653.00  78300.40   2643.20   84%1 o
   0   6   5   8902.20   7322.40    870.00   84%1 o
   0   7   6   1872.20   2987.80    563.90   84%1 o
   1 -10   7   8237.90   3677.80    435.20   84%1 o
  -1  -2 -14   2722.40   1622.00    291.90   84%1 o
  -1  -2 -13   2540.50   1536.50    308.30   84%1 o
  -1  -1 -13   1039.00    771.10    247.20   84%1 o
  -1   0 -13   3020.30   1838.10    343.70   84%1 o
  -1   1 -12    469.85   2340.60    420.90   84%1 o
  -1   1 -11   9975.80  11955.20    794.60   84%1 o
  -1   2 -11    865.04   1129.80    417.00   84%1 <
  -1   3 -10    558.97   2774.60    479.00   84%1 o
  -1   4  -9   7918.70  14138.70    898.70   84%1 o
  -1   5  -9   4426.60   2872.50    460.60   84%1 o
   1  -2  12  16755.00  17994.60    933.40   84%1 o
   1  -1  13   1752.60    422.60    219.00   84%1 <
   0   6   7  10108.00  12000.60    888.80   85%1 o
   1  -9   8    165.91    236.20    222.00   85%1 <
   0   7   8   7951.20   8577.50    748.20   85%1 o
   1  -8   9    568.44    398.30    239.50   85%1 <
   0   7   9    574.14   1129.90    319.50   85%1 o
   0   8   9    933.90    870.00    280.00   85%1 o
   1  -8  10    297.76     54.40    168.90   85%1 <
   1  -7  10   2152.10   2433.90    379.60   85%1 o
   0   8  10   1321.00   2211.00    347.60   85%1 o
   1  -7  11    384.64    116.70    179.50   85%1 <
   1  -6  11    190.22   -112.50    191.40   85%1 <
   1  -6  12    307.67    143.40    184.30   85%1 <
   1  -5  12    109.37    163.20    191.20   85%1 <
   1  -4  13   1788.30   1048.70    265.40   85%1 o
  -1  -1 -14    697.73   3010.90    392.40   85%1 o
  -1   1 -14   1020.20    -30.60    146.90   85%1 <
  -1   1 -13   1004.70    856.00    253.10   85%1 o
  -1   2 -13    335.81     38.90    173.80   85%1 <
  -1   2 -12  16882.00  16528.80    938.40   85%1 o
  -1   3 -12   1007.20   1134.20    293.80   85%1 o
  -1   4 -12   1668.70    620.20    262.00   85%1 <
  -1   3 -11    971.73   2266.10    475.20   85%1 o
  -1   4 -11   6532.50   6367.60    637.20   85%1 o
  -1   5 -11   1058.00    853.70    280.40   85%1 o
  -1   4 -10   5489.60   5210.50    586.70   85%1 o
  -1   5 -10   6546.60   3528.20    547.80   85%1 o
  -1   6  -9  12813.00  12668.60    892.00   85%1 o
   0  -9  -8    300.08    393.70    264.10   85%1 <
  -1   7  -8   2248.60   2370.10    483.30   85%1 o
   0  -9  -7   1249.40   2963.20    447.90   85%1 o
   0  -8  -7  15866.00  16677.90   1025.60   85%1 o
  -1   8  -7   1739.20   1355.00    350.30   85%1 o
   0  -7  -6   2686.20  10598.40    849.40   85%1 o
  -1   9  -6    477.38    991.40    335.00   85%1 <
   0  -6  -5   8680.40  13930.50   1019.70   85%1 o
  -1  10  -5   6909.50   3429.20    449.00   85%1 o
  -1  11  -4   8107.80   4344.90    502.80   85%1 o
   0   3   3 138050.00 155566.00   4136.90   85%1 o
   0   4   4  94838.00  70316.40   2904.00   85%1 o
   0   5   5  95197.00  91990.00   2334.40   85%1 o
   0   5   6   7532.30  11351.50    945.40   85%1 o
   0   6   7  10116.00  12000.60    888.80   86%1 o
   0   6   8   5242.20   8383.50    729.40   86%1 o
   0   6   9   1224.50   2228.90    434.10   86%1 o
   0   7   9    770.39   1129.90    319.50   86%1 o
   0   7  10   3200.50   2771.70    388.40   86%1 o
   0   8  10   1130.80   2211.00    347.60   86%1 o
   0   7  11    220.60    211.60    201.60   86%1 <
  -1   2 -14   2705.20    579.80    230.50   86%1 <
  -1   4 -13   1792.60    632.40    229.30   86%1 <
  -1   5 -12    166.70    270.80    195.00   86%1 <
  -1   6 -12    262.80     30.10    167.70   86%1 <
  -1   6 -11    152.43     99.10    199.50   86%1 <
  -1   7 -11    140.56    194.40    184.80   86%1 <
  -1   7 -10   1750.30    582.60    236.80   86%1 <
  -1   8 -10    455.38    230.80    204.40   86%1 <
  -1   8  -9    681.17    229.70    218.20   86%1 <
   0  -9  -8    342.04    393.70    264.10   86%1 <
   0  -8  -8   5170.20   4682.20    518.00   86%1 o
  -1   9  -8    117.93    163.90    195.70   86%1 <
   0  -8  -7  16098.00  16677.90   1025.60   86%1 o
   0  -7  -7   5531.70   7335.30    758.50   86%1 o
  -1  10  -7   7361.80   5332.00    503.20   86%1 o
   0  -7  -6   3329.00  10598.40    849.40   86%1 o
   0  -6  -6   1611.00   3773.00    692.10   86%1 o
   0  -5  -5  93457.00  89035.70   2440.20   86%1 o
   0  -4  -4  97239.00  68995.60   3003.30   86%1 o
   0  -3  -3 135240.00 168638.00   4229.90   86%1 o
   0   3   4  10092.00  20562.60   2360.80   86%1 o
   0   4   5  46495.00  33300.30   1999.80   86%1 o
   0   5   6   7808.80  11351.50    945.40   86%1 o
   0   5   7  16901.00  13036.80    921.10   86%1 o
   0  -8 -10    554.74   1681.80    318.70   87%1 o
   0  -9  -9   1825.40    317.90    225.20   87%1 <
   0  -8  -9    912.74    507.00    264.20   87%1 <
   0  -7  -9   1652.30   1569.80    382.10   87%1 o
   0  -7  -8   7747.40   8414.50    747.60   87%1 o
   0  -6  -8   8225.90   8598.90    797.40   87%1 o
   0  -6  -7  11933.00  17584.00   1027.30   87%1 o
   0  -5  -7  17725.00  12286.60    927.40   87%1 o
   0  -5  -6  11063.00  11761.70   1072.70   87%1 o
   0  -4  -6  62369.00  63247.40   2114.90   87%1 o
   0  -4  -5  60286.00  43270.70   2155.10   87%1 o
   0  -3  -4  12072.00  18882.60   2386.20   87%1 o
   0   3   5 110950.00  98370.20   2944.80   87%1 o
   0   3   6  30784.00  19049.10   1889.60   87%1 o
   0   4   6  61847.00  62477.30   2066.30   87%1 o
   0   4   7  14216.00  21332.70   1170.70   87%1 o
   0   4   8   4979.10   2270.40    536.70   87%1 o
   0   5   8   9914.60  19135.00    984.20   87%1 o
   0   5   9   7883.00   5657.90    629.20   87%1 o
   0   5  10    457.52   -199.70    391.10   87%1 <
   0   6  10    700.91   1881.70    384.40   87%1 o
   0   6  11    414.58    743.90    270.70   87%1 <
   0   7  11    265.61    211.60    201.60   87%1 <
   0   6  12     21.42     13.20    195.70   87%1 <
   0   5  11    145.32    206.90    258.40   87%1 <
   0  -8 -10    555.31   1681.80    318.70   88%1 o
   0  -9  -9   1930.20    317.90    225.20   88%1 <
   0  -8  -9    847.04    507.00    264.20   88%1 <
   0  -7  -9   1843.00   1569.80    382.10   88%1 o
   0  -8  -8   6091.20   4682.20    518.00   88%1 o
   0  -7  -8   7448.50   8414.50    747.60   88%1 o
   0  -7  -7   6447.70   7335.30    758.50   88%1 o
   0  -6  -7  12547.00  17584.00   1027.30   88%1 o
   0  -5  -6  12038.00  11761.70   1072.70   88%1 o
   0  -4  -5  62806.00  43270.70   2155.10   88%1 o
   0  -3  -4  13654.00  18882.60   2386.20   88%1 o
   0   3   4  11432.00  20562.60   2360.80   88%1 o
   0   3   5 111080.00  98370.20   2944.80   88%1 o
   0   4   6  62699.00  62477.30   2066.30   88%1 o
   0   4   7  14711.00  21332.70   1170.70   88%1 o
   0   5   7  19770.00  13036.80    921.10   88%1 o
   0   5   8   9855.50  19135.00    984.20   88%1 o
   0   5   9   7692.20   5657.90    629.20   88%1 o
   0   6   9   1459.50   2228.90    434.10   88%1 o
   0   5  10    497.88   -199.70    391.10   88%1 <
   0   6  10    681.00   1881.70    384.40   88%1 o
   0   6  11    394.84    743.90    270.70   88%1 <
   0   7  11    258.57    211.60    201.60   88%1 <
   0   6  12     20.60     13.20    195.70   88%1 <
   0  -7 -11    288.77     -2.10    194.90   89%1 <
   0  -6 -11    324.28    494.70    236.70   89%1 <
   0  -8 -10    480.88   1681.80    318.70   89%1 o
   0  -7 -10   4834.20   4107.30    464.60   89%1 o
   0  -6 -10    530.49   1295.20    394.30   89%1 o
   0  -7  -9   1598.80   1569.80    382.10   89%1 o
   0  -6  -9   1189.00   1789.40    490.70   89%1 o
   0  -5  -9   6393.10   6943.20    684.50   89%1 o
   0  -6  -8   8212.60   8598.90    797.40   89%1 o
   0  -5  -8   8975.50  16582.10    989.20   89%1 o
   0  -4  -8   6263.00   4133.00    558.70   89%1 o
   0  -5  -7  17505.00  12286.60    927.40   89%1 o
   0  -4  -7  15175.00  20262.10   1171.60   89%1 o
   0  -4  -6  62044.00  63247.40   2114.90   89%1 o
   0  -3  -6  31004.00  21034.50   1763.90   89%1 o
   0  -3  -5 107110.00  84307.20   2867.00   89%1 o
   0  -2  -4  36614.00  51522.00   2836.50   89%1 o
   0   2   4  35142.00  59374.10   3089.10   89%1 o
   0   2   5   4567.10   5571.40   1815.10   89%1 o
   0   2   6    407.88   2752.20   1661.20   89%1 <
   0   3   6  30680.00  19049.10   1889.60   89%1 o
   0   3   7  14507.00  15081.10   1175.00   89%1 o
   0   3   8   8757.40   9443.20    825.00   89%1 o
   0   4   8   4893.20   2270.40    536.70   89%1 o
   0   3   9   2082.00   1937.10    459.50   89%1 o
   0   4   9    423.58    -51.40    320.90   89%1 <
   0   3  10   4465.40   6032.80    608.80   89%1 o
   0   4  10    159.05    505.90    395.80   89%1 <
   0   5  10    434.81   -199.70    391.10   89%1 <
   0   4  11    823.73    687.00    397.30   89%1 <
   0   5  11    132.66    206.90    258.40   89%1 <
   0   4  12   1183.10    590.90    277.80   89%1 <
   0   5  12    210.84    153.60    191.40   89%1 <
   0   4  13   3655.10   2292.10    362.70   89%1 o
   0   5  13    955.21     47.40    177.90   89%1 <
   0  -5 -13   1181.70     67.50    178.50   90%1 <
   0  -6 -12     57.36     82.80    172.60   90%1 <
   0  -5 -12    253.33   -159.70    186.50   90%1 <
   0  -6 -11    288.42    494.70    236.70   90%1 <
   0  -5 -11    133.10    343.50    227.70   90%1 <
   0  -4 -11    900.47    994.20    374.70   90%1 <
   0  -6 -10    536.41   1295.20    394.30   90%1 o
   0  -5 -10    493.37    960.10    396.60   90%1 <
   0  -4 -10    137.97    582.20    394.20   90%1 <
   0  -5  -9   6065.70   6943.20    684.50   90%1 o
   0  -4  -9    361.91    433.40    335.40   90%1 <
   0  -3  -9   2084.10   1878.80    466.00   90%1 o
   0  -4  -8   5173.60   4133.00    558.70   90%1 o
   0  -3  -8   7969.10   8852.30    879.50   90%1 o
   0  -3  -7  13051.00  12888.30   1090.30   90%1 o
   0  -3  -6  28306.00  21034.50   1763.90   90%1 o
   0  -2  -6    431.75    832.00   1457.40   90%1 <
   0  -2  -5   4036.90   9535.00   1878.60   90%1 o
   0  -2  -4  32675.00  51522.00   2836.50   90%1 o
   0  -1  -3 102290.00  81741.50   4739.80   90%1 o
   0   1   3 100850.00  84405.20   4473.70   90%1 o
   0   1   4    999.76   3018.80   2975.20   90%1 <
   0   1   5   1331.10  -3172.80   1755.30   90%1 <
   0   2   5   3962.30   5571.40   1815.10   90%1 o
   0   2   6    381.60   2752.20   1661.20   90%1 <
   0   2   7  69611.00  71136.70   2213.10   90%1 o
   0   2   8    257.97   1054.10    550.30   90%1 <
   0   3   8   7877.80   9443.20    825.00   90%1 o
   0   2   9    105.77    756.80    357.30   90%1 <
   0   3   9   1847.00   1937.10    459.50   90%1 o
   0   2  10   2320.10   2201.70    450.90   90%1 o
   0   3  10   4032.40   6032.80    608.80   90%1 o
   0   2  11    113.38    214.60    333.50   90%1 <
   0   3  11    417.53    543.70    392.70   90%1 <
   0   2  12   8019.00  10235.80    755.70   90%1 o
   0   3  12    118.39     29.50    287.40   90%1 <
   0   4  12   1030.60    590.90    277.80   90%1 <
   0   2  13    240.65    250.10    219.70   90%1 <
   0   3  13   3000.50   6022.60    526.30   90%1 o
   0   4  13   3169.10   2292.10    362.70   90%1 o
   0   2  14   2511.50    602.20    211.20   90%1 <
   0  -5 -13   1287.50     67.50    178.50   91%1 <
   0  -4 -13   3668.30   1861.00    311.10   91%1 o
   0  -6 -12     48.20     82.80    172.60   91%1 <
   0  -5 -12    257.69   -159.70    186.50   91%1 <
   0  -4 -12   1160.00    691.50    272.70   91%1 <
   0  -5 -11    109.07    343.50    227.70   91%1 <
   0  -4 -11    972.50    994.20    374.70   91%1 <
   0  -3 -11    412.66    -18.30    349.00   91%1 <
   0  -5 -10    567.77    960.10    396.60   91%1 <
   0  -4 -10    189.22    582.20    394.20   91%1 <
   0  -3 -10   3590.40   4207.50    580.90   91%1 o
   0  -4  -9    311.94    433.40    335.40   91%1 <
   0  -3  -9   2051.60   1878.80    466.00   91%1 o
   0  -3  -8   7673.90   8852.30    879.50   91%1 o
   0  -2  -8    375.45    302.00    591.30   91%1 <
   0  -3  -7  12782.00  12888.30   1090.30   91%1 o
   0  -2  -7  70522.00  65140.90   2162.20   91%1 o
   0  -2  -6    467.15    832.00   1457.40   91%1 <
   0  -2  -5   3834.60   9535.00   1878.60   91%1 o
   0  -1  -5   1728.10   5861.30   2050.20   91%1 <
   0  -1  -4   1162.80   2390.60   2955.20   91%1 <
   0  -1  -3 100110.00  81741.50   4739.80   91%1 o
   0   1   4   1021.90   3018.80   2975.20   91%1 <
   0   1   5   1602.60  -3172.80   1755.30   91%1 <
   0   1   6  13916.00  13393.80   1815.30   91%1 o
   0   1   7  50952.00  54621.10   2119.90   91%1 o
   0   2   7  68463.00  71136.70   2213.10   91%1 o
   0   1   8   2268.10   1920.90    789.40   91%1 <
   0   2   8    311.62   1054.10    550.30   91%1 <
   0   1   9   2669.40   4541.50    620.30   91%1 o
   0   2   9    123.08    756.80    357.30   91%1 <
   0   1  10   2697.30   2954.20    524.10   91%1 o
   0   2  10   2249.10   2201.70    450.90   91%1 o
   0   1  11   1389.90    496.60    427.20   91%1 <
   0   2  11     93.11    214.60    333.50   91%1 <
   0   1  12   1499.30   1732.60    452.90   91%1 o
   0   2  12   7653.10  10235.80    755.70   91%1 o
   0   3  12    129.56     29.50    287.40   91%1 <
   0   1  13   4220.10   4578.50    511.80   91%1 o
   0   2  13    239.54    250.10    219.70   91%1 <
   0   3  13   2957.00   6022.60    526.30   91%1 o
   0   0  14    860.50    385.10    210.60   91%1 <
   0   1  14     42.95     51.00    146.90   91%1 <
   0   2  14   2440.20    602.20    211.20   91%1 <
   0  -2 -14   2494.40    777.30    250.40   92%1 o
   0  -1 -14     46.79    -46.70    176.90   92%1 <
   0  -3 -13   3221.00   3774.50    448.50   92%1 o
   0  -2 -13    275.61     41.00    214.50   92%1 <
   0  -1 -13   4238.30   4274.40    458.60   92%1 o
   0  -2 -12   7950.10   8943.00    735.90   92%1 o
   0  -1 -12   1529.10    567.60    385.60   92%1 <
   0  -2 -11    129.37   1356.90    383.80   92%1 o
   0  -1 -11   1569.20    331.90    359.70   92%1 <
   0  -2 -10   2114.40   1781.70    457.00   92%1 o
   0  -1 -10   2633.80   2331.60    466.50   92%1 o
   0   0 -10   5014.00   5942.90    624.90   92%1 o
   0  -1  -9   2752.20   3153.30    558.00   92%1 o
   0  -1  -8   2310.60   2969.00    716.90   92%1 o
   0   0  -8   2207.00   2817.00    675.00   92%1 o
   0  -1  -7  51632.00  56630.10   2148.30   92%1 o
   0  -1  -6  14343.00  15225.50   2022.90   92%1 o
   0   0  -6  37124.00  22020.60   2026.60   92%1 o
   0   0  -4   3336.30   2563.70   2841.80   92%1 <
   0   0   4   3329.00   4143.00   2860.20   92%1 <
   0  -1   6  14060.00  17274.70   1871.50   92%1 o
   0   0   6  36391.00  27587.20   2283.20   92%1 o
   0  -1   7  50494.00  49202.00   2017.80   92%1 o
   0  -1   8   2248.00   2670.10    676.50   92%1 o
   0   0   8   2157.40   1293.50    747.50   92%1 <
   0  -1   9   2686.00   4630.60    586.10   92%1 o
   0  -2  10   2039.20   1739.60    510.50   92%1 o
   0  -1  10   2580.50   2709.60    475.40   92%1 o
   0   0  10   4806.90   6361.30    678.50   92%1 o
   0  -2  11    120.12    998.10    409.70   92%1 <
   0  -1  11   1517.30    387.70    354.00   92%1 <
   0  -2  12   7564.20   8704.20    765.80   92%1 o
   0  -1  12   1457.80   1270.90    443.20   92%1 <
   0   0  12   1002.00    922.50    409.10   92%1 <
   0  -2  13    264.17   -108.60    248.40   92%1 <
   0  -1  13   4057.40   4945.60    552.00   92%1 o
   0  -2  14   2406.00    883.20    258.70   92%1 o
   0  -1  14     44.03     -0.80    180.60   92%1 <
   0   0 -14    928.40    260.10    174.00   92%1 <
   0   0 -12   1054.30    373.40    321.80   92%1 <
   0  -2   9    144.60    274.00    408.90   92%1 <
   0  -3  12     91.43    403.40    320.00   92%1 <
   0  -3  13   3107.50   5134.20    509.80   92%1 o
   0  -1 -14     50.36    -46.70    176.90   93%1 <
   0   0 -14    871.54    260.10    174.00   93%1 <
   0   1 -14     37.49      2.60    148.60   93%1 <
   0   2 -14   2403.50   1255.60    265.70   93%1 o
   0  -1 -13   4065.50   4274.40    458.60   93%1 o
   0   1 -13   4266.10   4516.50    455.90   93%1 o
   0   2 -13    239.04     85.50    174.90   93%1 <
   0  -1 -12   1647.30    567.60    385.60   93%1 <
   0   0 -12   1097.00    373.40    321.80   93%1 <
   0   1 -12   1440.60    892.90    355.10   93%1 <
   0   2 -12   7661.10   9053.50    692.20   93%1 o
   0   1 -11   1467.20    579.50    321.80   93%1 <
   0   0 -10   5058.60   5942.90    624.90   93%1 o
   0   1 -10   2605.70   2838.20    467.10   93%1 o
   0   1  -9   2725.90   2486.20    515.30   93%1 o
   0   0  -8   2103.60   2817.00    675.00   93%1 o
   0   1  -8   2257.60   2501.10    639.60   93%1 o
   0   1  -7  50792.00  50390.90   2017.90   93%1 o
   0   0  -6  36812.00  22020.60   2026.60   93%1 o
   0   1  -6  13999.00  17817.90   1608.50   93%1 o
   0   1  -5   1741.50   3709.40   1714.40   93%1 <
   0   0  -4   3362.40   2563.70   2841.80   93%1 <
   0   1  -4   1011.50   3898.90   2365.10   93%1 <
   0  -1   4   1070.40    308.70   2692.10   93%1 <
   0  -1   5   1711.70   6013.70   1749.60   93%1 o
   0  -2   6    457.01  -1354.20   1505.10   93%1 <
   0  -1   6  13534.00  17274.70   1871.50   93%1 o
   0  -2   7  67601.00  69701.30   2148.50   93%1 o
   0  -1   7  49394.00  49202.00   2017.80   93%1 o
   0  -3   8   6914.80   7263.80    786.30   93%1 o
   0  -2   8    384.34   1148.30    566.00   93%1 <
   0  -1   8   2263.20   2670.10    676.50   93%1 o
   0  -3   9   1992.10   1788.70    499.80   93%1 o
   0  -2   9    162.34    274.00    408.90   93%1 <
   0  -4  10    226.47    928.70    428.20   93%1 <
   0  -3  10   3417.90   3635.60    523.00   93%1 o
   0  -2  10   1967.90   1739.60    510.50   93%1 o
   0  -4  11    974.20    591.80    389.70   93%1 <
   0  -3  11    405.87    754.90    385.20   93%1 <
   0  -2  11    111.74    998.10    409.70   93%1 <
   0  -5  12    267.85     80.00    186.30   93%1 <
   0  -4  12   1198.10    729.40    286.00   93%1 <
   0  -3  12     78.05    403.40    320.00   93%1 <
   0  -2  12   7036.30   8704.20    765.80   93%1 o
   0  -5  13   1206.40     91.20    162.20   93%1 <
   0  -4  13   3448.70   1504.70    294.80   93%1 o
   0  -3  13   3091.10   5134.20    509.80   93%1 o
   0   1 -14     35.82      2.60    148.60   94%1 <
   0   2 -14   2302.40   1255.60    265.70   94%1 o
   0   1 -13   3901.70   4516.50    455.90   94%1 o
   0   2 -13    230.71     85.50    174.90   94%1 <
   0   3 -13   3016.90   3781.20    427.60   94%1 o
   0   4 -13   2979.00   1792.00    303.30   94%1 o
   0   1 -12   1528.90    892.90    355.10   94%1 <
   0   2 -12   7497.10   9053.50    692.20   94%1 o
   0   3 -12    103.03    267.50    243.20   94%1 <
   0   4 -12    859.56    -20.30    205.40   94%1 <
   0   1 -11   1428.40    579.50    321.80   94%1 <
   0   2 -11    104.19    108.20    280.40   94%1 <
   0   3 -11    350.66    203.60    295.90   94%1 <
   0   2 -10   2168.20   2028.40    457.30   94%1 o
   0   3 -10   3629.90   3302.70    536.50   94%1 o
   0   1  -9   2729.90   2486.20    515.30   94%1 o
   0   2  -9    167.83    788.60    409.10   94%1 <
   0   3  -9   1663.10   1604.50    443.10   94%1 o
   0   1  -8   2058.30   2501.10    639.60   94%1 o
   0   2  -8    335.55    565.70    564.70   94%1 <
   0   3  -8   7362.20   6312.90    716.00   94%1 o
   0   1  -7  48640.00  50390.90   2017.90   94%1 o
   0   2  -7  65648.00  63014.10   2130.80   94%1 o
   0   1  -6  13284.00  17817.90   1608.50   94%1 o
   0   2  -6    431.54   5791.80   1357.50   94%1 o
   0   1  -5   1643.60   3709.40   1714.40   94%1 <
   0   2  -5   3414.80   3735.20   1444.10   94%1 <
   0   1  -4   1070.90   3898.90   2365.10   94%1 <
   0   1  -3  92795.00  76758.10   3585.00   94%1 o
   0  -1   3  90440.00  75946.40   3938.40   94%1 o
   0  -2   4  30786.00  42544.10   2539.10   94%1 o
   0  -2   5   3487.60   5266.70   1728.90   94%1 o
   0  -3   6  25631.00  15649.20   1471.90   94%1 o
   0  -2   6    530.57  -1354.20   1505.10   94%1 <
   0  -4   7  12416.00  23786.40   1225.70   94%1 o
   0  -3   7  11628.00  12938.30   1078.10   94%1 o
   0  -5   8   6257.00   8841.50    710.70   94%1 o
   0  -4   8   5322.10   3108.60    582.00   94%1 o
   0  -3   8   6819.10   7263.80    786.30   94%1 o
   0  -5   9   3990.10   5712.60    654.30   94%1 o
   0  -4   9    289.85    521.20    394.20   94%1 <
   0  -3   9   1856.10   1788.70    499.80   94%1 o
   0  -6  10    377.40    389.10    331.40   94%1 <
   0  -5  10    565.90   2068.60    446.50   94%1 o
   0  -4  10    230.46    928.70    428.20   94%1 <
   0  -7  11    391.85     66.10    164.90   94%1 <
   0  -6  11    181.66    215.80    197.10   94%1 <
   0  -5  11     63.07     16.80    273.40   94%1 <
   0  -4  11    928.47    591.80    389.70   94%1 <
   0  -6  12     29.59     69.70    156.10   94%1 <
   0  -5  12    239.62     80.00    186.30   94%1 <
   0  -5  13   1108.30     91.20    162.20   94%1 <
   3   2 -15    532.53    574.80    105.50    1%2 o
   2   7 -14    131.70    356.00     84.60    1%2 o
   2   4 -12   2552.60   2017.90    185.50    1%2 o
   4  -9 -11    393.68    518.00    111.60    1%2 o
   1   9 -11    967.85   1347.80    118.40    1%2 o
   4 -10 -10    280.19    195.50    103.60    1%2 <
   2   1 -10  23446.00  22256.90    453.40    1%2 o
   3  -6  -9   2217.40   2447.90    225.60    1%2 o
   1   6  -9   6180.90   7559.90    268.50    1%2 o
   3  -7  -8   3411.20   3427.70    243.00    1%2 o
   0  11  -8    117.48    134.50     89.20    1%2 <
   1   3  -7    995.26   1806.50    242.70    1%2 o
   3 -11  -5    307.93    143.40     95.50    1%2 <
   3 -12  -4    199.66    -11.90    101.80    1%2 <
  -1  12  -4   1666.70   1091.70    120.90    1%2 o
   0   4  -3   4715.60   4359.40    312.80    1%2 o
   2  -9  -2   1429.80   1386.30    186.70    1%2 o
  -1   9  -2   1339.60   1579.30    187.50    1%2 o
  -2  13   0    129.57    383.80     87.80    1%2 o
   1  -7   1     67.14    330.20    186.20    1%2 <
  -2  10   2   1300.10   1925.50    174.40    1%2 o
   0  -5   4  26470.00  22507.40    460.50    1%2 o
  -2   6   5   1019.40   1214.90    188.70    1%2 o
  -3  11   6    130.98     25.20     89.60    1%2 <
  -1  -4   8    705.36   1556.00    189.60    1%2 o
  -1  -5   9    593.94    836.00    175.90    1%2 o
  -3   7   9    518.37    608.10    164.30    1%2 o
  -2  -4  13     63.57    358.20    114.00    1%2 o
  -2  -5  14     77.31    211.90     93.40    1%2 <
  -3   1  14     64.09   -123.30    137.70    1%2 <
   3   3 -16     49.59    -56.10     82.20    1%2 <
   2   5 -13     62.94     69.50     80.90    1%2 <
   1  10 -12     69.10    134.20     75.30    1%2 <
   1   7 -10    641.64    253.20    110.20    1%2 <
   0   9  -7    569.01   1007.60    133.70    1%2 o
   0   8  -6   4808.00   5081.60    230.50    1%2 o
   0   5  -4  26273.00  25999.50    478.20    1%2 o
   3 -13  -3    539.05    618.80     91.40    1%2 o
  -1  10  -3   1946.20   1855.60    162.90    1%2 o
   2 -10  -1   2323.10   1190.30    145.70    1%2 o
   2 -11   0    206.41    455.20    101.30    1%2 o
  -1   6   0   3214.50   3833.40    232.10    1%2 o
   2 -12   1     48.22    145.00     82.50    1%2 <
  -2  11   1   1816.40   1632.80    135.40    1%2 o
   1  -8   2     70.35     68.10    132.10    1%2 <
   1  -9   3   1867.50   2024.60    173.00    1%2 o
  -2   7   4   4238.70   5930.50    257.90    1%2 o
   0  -6   5   2367.80   2723.80    194.60    1%2 o
  -3  12   5    124.47    141.40     88.00    1%2 <
   0  -7   6    807.18   1155.80    157.60    1%2 o
   0  -8   7   5066.90   5857.00    236.70    1%2 o
  -1  -6  10   2556.50   2917.20    183.60    1%2 o
  -1  -7  11    112.12    213.50     97.00    1%2 <
  -1  -8  12    632.82    557.70    100.60    1%2 o
  -2  -6  15    185.64    154.70     77.30    1%2 <
   2 -13   2    403.68    358.30     76.10    1%2 o
   1 -10   4    203.43    140.80     82.60    1%2 <
   1 -11   5   1600.20   1330.10    132.30    1%2 o
   1 -12   6   1019.10    752.60    108.50    1%2 o
   0  -9   8     53.27    114.70    102.40    1%2 <
   0 -10   9     46.67    117.70     90.70    1%2 <
   0 -11  10    203.55    223.30     80.10    1%2 <
  -1  -9  13    372.21    173.20     63.80    1%2 <
   3   3 -16     17.73    -56.10     82.20    2%2 <
   3  -1 -13   1761.60   1855.60    200.80    2%2 o
   2   5 -13     18.43     69.50     80.90    2%2 <
   1  10 -12    146.24    134.20     75.30    2%2 <
   4  -9 -11    736.49    518.00    111.60    2%2 o
   2   2 -11   1725.00   1643.50    218.60    2%2 o
   4 -10 -10    277.85    195.50    103.60    2%2 <
   2   1 -10  23283.00  22256.90    453.40    2%2 o
   1   7 -10     61.47    253.20    110.20    2%2 <
   3  -6  -9   1784.90   2447.90    225.60    2%2 o
   3  -7  -8   3892.90   3427.70    243.00    2%2 o
   1   3  -7    390.05   1806.50    242.70    2%2 o
   0   9  -7    586.36   1007.60    133.70    2%2 o
   2  -4  -6   2029.80   2402.50    312.10    2%2 o
   0   5  -4  23460.00  25999.50    478.20    2%2 o
   3 -13  -3    744.57    618.80     91.40    2%2 o
  -1  10  -3   2070.90   1855.60    162.90    2%2 o
   2 -10  -1   2400.50   1190.30    145.70    2%2 o
   2 -11   0    250.57    455.20    101.30    2%2 o
  -1   6   0   4247.20   3833.40    232.10    2%2 o
   2 -12   1     18.62    145.00     82.50    2%2 <
  -2  11   1   2142.50   1632.80    135.40    2%2 o
   1  -8   2    264.81     68.10    132.10    2%2 <
   1  -9   3   1967.80   2024.60    173.00    2%2 o
  -2   7   4   7094.50   5930.50    257.90    2%2 o
   0  -6   5   2171.50   2723.80    194.60    2%2 o
  -3  12   5    160.81    141.40     88.00    2%2 <
   0  -7   6    854.93   1155.80    157.60    2%2 o
  -3  11   6    160.20     25.20     89.60    2%2 <
   0  -8   7   5764.90   5857.00    236.70    2%2 o
  -3   8   8   1343.60   1099.60    150.50    2%2 o
  -3   7   9    477.68    608.10    164.30    2%2 o
  -1  -6  10   2248.30   2917.20    183.60    2%2 o
  -1  -7  11     93.82    213.50     97.00    2%2 <
  -1  -8  12    157.34    557.70    100.60    2%2 o
  -3   1  14     73.46   -123.30    137.70    2%2 <
  -2  -6  15    216.31    154.70     77.30    2%2 <
  -3   0  15    354.36    689.50    112.90    2%2 o
  -3  -1  16    368.80    712.40    112.60    2%2 o
   2   7 -15     12.33     18.30     80.50    2%2 <
   2   6 -14    538.47    403.70     91.40    2%2 o
   1   8 -11    763.31    554.60    103.00    2%2 o
   1   4  -8   1976.30   2293.80    197.60    2%2 o
   0  10  -8     59.68    -25.60     87.20    2%2 <
   0   6  -5   1954.00   2064.30    212.00    2%2 o
  -1  11  -4    954.35   1471.50    140.20    2%2 o
  -1   7  -1     39.43    -62.40    142.70    2%2 <
  -2  12   0   2230.50   2096.50    148.30    2%2 o
   2 -13   2    557.53    358.30     76.10    2%2 o
  -2   8   3   2620.10   2703.50    205.40    2%2 o
   1 -10   4    120.96    140.80     82.60    2%2 <
  -3  13   4     95.00    202.40     68.70    2%2 <
   1 -11   5   1375.40   1330.10    132.30    2%2 o
   1 -12   6    820.83    752.60    108.50    2%2 o
   0  -9   8     56.06    114.70    102.40    2%2 <
   0 -10   9    140.83    117.70     90.70    2%2 <
   0 -11  10    319.89    223.30     80.10    2%2 <
  -1  -9  13    353.14    173.20     63.80    2%2 <
   1   9 -12     32.98     46.90     69.50    2%2 <
  -1  12  -5   1519.00   1411.10    118.50    2%2 o
  -2  13  -1     83.87     95.40     64.20    2%2 <
   2   7 -15     11.71     18.30     80.50    3%2 <
   2   6 -14    514.13    403.70     91.40    3%2 o
   3  -1 -13   1410.20   1855.60    200.80    3%2 o
   2   2 -11   1895.60   1643.50    218.60    3%2 o
   1   8 -11    589.54    554.60    103.00    3%2 o
   4 -10 -10    279.97    195.50    103.60    3%2 <
   3  -7  -8   3836.20   3427.70    243.00    3%2 o
   1   4  -8   2185.60   2293.80    197.60    3%2 o
   0  10  -8     68.10    -25.60     87.20    3%2 <
   3  -8  -7   1280.30   1138.70    175.70    3%2 o
   0   9  -7    921.55   1007.60    133.70    3%2 o
   3  -9  -6    152.26    270.10    143.80    3%2 <
   2  -4  -6   2721.70   2402.50    312.10    3%2 o
   2  -5  -5   7830.50  11983.00    358.70    3%2 o
   0   6  -5   2861.90   2064.30    212.00    3%2 o
   0   5  -4  27544.00  25999.50    478.20    3%2 o
  -1  11  -4   1500.60   1471.50    140.20    3%2 o
  -1   7  -1    142.23    -62.40    142.70    3%2 <
  -2  12   0   2928.30   2096.50    148.30    3%2 o
   2 -13   2    645.88    358.30     76.10    3%2 o
  -2   8   3   1973.90   2703.50    205.40    3%2 o
   1 -10   4    195.18    140.80     82.60    3%2 <
  -2   7   4   7490.40   5930.50    257.90    3%2 o
  -3  13   4    135.95    202.40     68.70    3%2 <
   1 -11   5   1714.30   1330.10    132.30    3%2 o
  -3  12   5    244.11    141.40     88.00    3%2 <
   1 -12   6   1185.40    752.60    108.50    3%2 o
   0  -8   7   6432.80   5857.00    236.70    3%2 o
  -3   9   7    269.14    543.20    123.70    3%2 o
   0  -9   8     48.59    114.70    102.40    3%2 <
  -3   8   8   1456.30   1099.60    150.50    3%2 o
   0 -10   9    120.35    117.70     90.70    3%2 <
  -2   1   9  10091.00  13706.40    399.90    3%2 o
   0 -11  10    387.29    223.30     80.10    3%2 <
  -2   0  10    554.85   1674.00    246.80    3%2 o
  -1  -9  13    413.12    173.20     63.80    3%2 <
  -3   0  15    329.69    689.50    112.90    3%2 o
  -3  -1  16    258.78    712.40    112.60    3%2 o
   2   3 -12    224.67    467.30    137.00    3%2 o
   1   9 -12     14.84     46.90     69.50    3%2 <
   1   5  -9    835.50   1209.10    153.10    3%2 o
   0  11  -9     10.61    127.40     73.20    3%2 <
   0   7  -6   1236.60   1320.60    154.30    3%2 o
   3 -10  -5    505.76    558.70    116.20    3%2 o
  -1  12  -5   1782.40   1411.10    118.50    3%2 o
   3 -11  -4    654.02    623.60    117.70    3%2 o
   3 -12  -3    474.14    187.10     86.50    3%2 <
   3 -13  -2    408.18    254.60     83.00    3%2 o
  -1   8  -2    135.93    334.00    132.20    3%2 <
  -2  13  -1     69.55     95.40     64.20    3%2 <
  -2   9   2    852.41   1182.10    144.30    3%2 o
  -2  -5  15    135.89    425.10    109.40    3%2 o
   3   1 -15     52.37     29.10    101.60    4%2 <
   2   7 -15     10.12     18.30     80.50    4%2 <
   2   4 -13     40.10    194.50    106.60    4%2 <
   2   3 -12    251.03    467.30    137.00    4%2 o
   1   9 -12     15.44     46.90     69.50    4%2 <
   2   2 -11   1820.90   1643.50    218.60    4%2 o
   1   6 -10   5056.40   4372.00    224.30    4%2 o
   1   5  -9    854.58   1209.10    153.10    4%2 o
   0  11  -9      7.91    127.40     73.20    4%2 <
   3  -8  -7   1152.70   1138.70    175.70    4%2 o
   0   8  -7   3980.30   4438.10    230.90    4%2 o
   3  -9  -6    125.07    270.10    143.80    4%2 <
   0   7  -6   1087.60   1320.60    154.30    4%2 o
   3 -10  -5    441.86    558.70    116.20    4%2 o
   2  -5  -5   7506.60  11983.00    358.70    4%2 o
   0   6  -5   2613.50   2064.30    212.00    4%2 o
  -1  12  -5   1671.30   1411.10    118.50    4%2 o
   3 -11  -4    500.58    623.60    117.70    4%2 o
   2  -6  -4    407.61    718.30    185.50    4%2 o
   3 -12  -3    445.25    187.10     86.50    4%2 <
   2  -7  -3   4515.00   3718.40    227.30    4%2 o
  -1   9  -3   2726.90   2320.70    182.60    4%2 o
   3 -13  -2    309.93    254.60     83.00    4%2 o
   2  -8  -2    541.04    765.00    175.00    4%2 o
  -1   8  -2    100.75    334.00    132.20    4%2 <
  -2  13  -1     76.33     95.40     64.20    4%2 <
  -2  10   1   2363.10   1812.40    173.50    4%2 o
  -2   9   2    744.39   1182.10    144.30    4%2 o
  -2   8   3   1984.60   2703.50    205.40    4%2 o
  -3  11   5     28.38    175.90     88.10    4%2 <
  -3  10   6    263.77    356.60    110.80    4%2 o
  -3   9   7    214.29    543.20    123.70    4%2 o
  -3   8   8   1368.50   1099.60    150.50    4%2 o
  -2   0  10    618.64   1674.00    246.80    4%2 o
  -2  -1  11   2302.10   2520.90    247.30    4%2 o
  -2  -2  12   4353.30   5360.80    244.90    4%2 o
  -2  -3  13   2515.60   3461.20    195.00    4%2 o
  -2  -4  14   2013.80   1757.60    144.90    4%2 o
  -2  -5  15    130.46    425.10    109.40    4%2 o
   1   7 -11    194.81    168.80     87.80    4%2 <
   0   9  -8     42.60    -21.10     98.00    4%2 <
  -1  10  -4     20.65     62.10    104.60    4%2 <
   2  -9  -1   1648.60   1688.80    170.80    4%2 o
   2 -10   0    922.83    240.50    131.10    4%2 <
  -2  11   0    321.18    379.40     96.40    4%2 o
   2 -11   1   1155.60   1215.00    132.20    4%2 o
   2 -12   2    133.49    193.70    101.60    4%2 <
   2 -13   3     41.80      1.10     79.90    4%2 <
   1  -9   4   9640.80   5351.70    243.50    4%2 o
   1 -10   5   2660.80   1758.90    172.10    4%2 o
   1 -11   6    143.54    296.20    101.30    4%2 <
   1 -12   7    166.27    179.00     94.80    4%2 <
   0  -8   8   2019.30   2022.50    173.20    4%2 o
   0  -9   9    732.03    755.30    128.20    4%2 o
   0 -10  10     68.05    343.90     95.20    4%2 o
  -1  -5  10   1102.00   1766.00    175.20    4%2 o
   0 -11  11     69.31     45.50     82.50    4%2 <
  -1  -6  11   1811.60   2090.50    164.40    4%2 o
  -1  -7  12    277.22    220.60    101.00    4%2 <
  -1  -8  13    226.30    296.10     91.50    4%2 o
   3   2 -16    430.60    301.70     97.00    5%2 o
   2   5 -14     55.39    228.40     91.30    5%2 <
   1   8 -12    188.40    129.90     83.20    5%2 <
   0  10  -9     35.19    -40.40     77.60    5%2 <
  -1  11  -5   1167.40   1231.10    128.50    5%2 o
   0   2  -2  83994.00  67427.90    875.50    5%2 o
   1  -4  -1   2417.00   4133.80    370.80    5%2 o
  -2  12  -1     60.51    203.00     83.90    5%2 <
   1  -5   0   3452.90   6152.70    333.10    5%2 o
   1  -6   1   3612.60   4384.90    255.10    5%2 o
   1  -7   2   1605.90   3231.50    213.80    5%2 o
  -1   3   2  49878.00  61091.20    747.60    5%2 o
   1  -8   3   4014.80   5907.10    252.10    5%2 o
   0  -3   3  52842.00  46896.50    625.70    5%2 o
  -3  13   3    182.48    166.70     72.20    5%2 <
   0  -4   4   7742.10  12177.50    396.20    5%2 o
  -3  12   4    112.13    128.40     70.30    5%2 <
   0  -5   5  23065.00  25088.40    454.30    5%2 o
   0  -6   6   5491.50   3841.60    224.70    5%2 o
  -1  -1   6   2533.40   7376.90    419.20    5%2 o
   0  -7   7   2135.70   1980.50    193.30    5%2 o
  -1  -2   7  14850.00  15340.50    404.80    5%2 o
  -1  -3   8   8463.20   9028.10    313.10    5%2 o
  -1  -4   9   1290.20   3171.30    199.00    5%2 o
   2   6 -15     73.58    -10.00     66.30    5%2 <
   1   9 -13    183.02    121.80     73.30    5%2 <
   4  -9 -10    603.30    781.90    119.40    5%2 o
   0  11 -10     63.78     16.50     71.10    5%2 <
   4 -10  -9    114.24    247.20     91.00    5%2 <
   4 -11  -8     76.85    167.60     85.00    5%2 <
  -1  12  -6    607.65    495.10     86.50    5%2 o
   0   4  -4   4717.50   9208.70    362.10    5%2 o
   0   3  -3  61416.00  42561.40    611.40    5%2 o
  -2  13  -2    627.42    652.00     79.40    5%2 o
   3 -13  -1    232.31    148.40     75.80    5%2 <
  -1   6  -1   6287.50   4452.90    270.20    5%2 o
  -1   5   0  17012.00  14521.40    396.30    5%2 o
  -1   4   1  11510.00  10679.20    400.20    5%2 o
  -2  -5  16    493.57    445.50    100.60    5%2 o
   0   5  -5  22256.00  22315.70    427.80    5%2 o
   3 -12  -2    356.33    416.60     89.70    5%2 o
  -1   7  -2   6781.30   8715.50    283.90    5%2 o
   2 -12   3    882.96    560.60    104.50    5%2 o
   2 -13   4    104.57    101.90     56.50    5%2 <
   1 -11   7   1011.60    985.30    116.80    5%2 o
   1 -12   8     41.58     60.50     54.40    5%2 <
   0 -10  11     26.72    141.50     75.60    5%2 <
  -1  -8  14     78.33     96.20     67.90    5%2 <
   3   2 -16    472.94    301.70     97.00    6%2 o
   2   6 -15     70.27    -10.00     66.30    6%2 <
   2   5 -14     64.61    228.40     91.30    6%2 <
   1   9 -13    194.79    121.80     73.30    6%2 <
   1   8 -12    200.89    129.90     83.20    6%2 <
   4  -8 -11    499.13    659.70    141.80    6%2 o
   4  -9 -10    535.80    781.90    119.40    6%2 o
   0  11 -10     46.82     16.50     71.10    6%2 <
   4 -10  -9    111.30    247.20     91.00    6%2 <
   0  10  -9     17.21    -40.40     77.60    6%2 <
   4 -11  -8     77.98    167.60     85.00    6%2 <
  -1  12  -6    745.64    495.10     86.50    6%2 o
   0   4  -4   4705.10   9208.70    362.10    6%2 o
   0   3  -3  55865.00  42561.40    611.40    6%2 o
   0   2  -2  69932.00  67427.90    875.50    6%2 o
  -2  13  -2    540.24    652.00     79.40    6%2 o
   3 -13  -1    215.68    148.40     75.80    6%2 <
   1  -4  -1   3439.50   4133.80    370.80    6%2 o
  -1   6  -1   6881.90   4452.90    270.20    6%2 o
   1  -5   0   2316.90   6152.70    333.10    6%2 o
  -1   5   0  17273.00  14521.40    396.30    6%2 o
   1  -6   1   2706.30   4384.90    255.10    6%2 o
  -1   4   1  12577.00  10679.20    400.20    6%2 o
  -1   3   2  69769.00  61091.20    747.60    6%2 o
   0  -3   3  50808.00  46896.50    625.70    6%2 o
  -3  13   3    170.66    166.70     72.20    6%2 <
   0  -4   4   7044.10  12177.50    396.20    6%2 o
  -2   6   4   1633.60   2096.00    224.80    6%2 o
   0  -5   5  22084.00  25088.40    454.30    6%2 o
   0  -6   6   4815.50   3841.60    224.70    6%2 o
  -1  -1   6   2960.60   7376.90    419.20    6%2 o
  -1  -2   7  13091.00  15340.50    404.80    6%2 o
  -1  -3   8   9467.60   9028.10    313.10    6%2 o
  -2  -5  16    489.12    445.50    100.60    6%2 o
   0   6  -6    425.97   1057.20    166.80    6%2 o
   0   5  -5  23136.00  22315.70    427.80    6%2 o
  -1   9  -4   4893.70   5528.70    239.10    6%2 o
   3 -11  -3     90.20     92.80     79.70    6%2 <
  -1   8  -3   1055.00   1238.20    166.00    6%2 o
   3 -12  -2    453.69    416.60     89.70    6%2 o
  -1   7  -2   5741.70   8715.50    283.90    6%2 o
   2 -11   2   1932.00   1755.30    143.40    6%2 o
  -2   8   2    455.37   1175.40    158.70    6%2 o
   2 -12   3    758.06    560.60    104.50    6%2 o
  -2   7   3   2770.70   2427.80    194.60    6%2 o
   2 -13   4    106.91    101.90     56.50    6%2 <
   1 -11   7   1069.10    985.30    116.80    6%2 o
   1 -12   8     27.98     60.50     54.40    6%2 <
   0  -9  10     93.47     99.30     83.50    6%2 <
   0 -10  11     18.63    141.50     75.60    6%2 <
  -1  -7  13     16.30    114.10     71.20    6%2 <
  -1  -8  14     62.88     96.20     67.90    6%2 <
   4  -7 -12   1218.00   1221.20    176.20    7%2 o
   4  -8 -11    439.11    659.70    141.80    7%2 o
   1   6 -11   1363.50   2022.50    165.20    7%2 o
   4  -9 -10    755.60    781.90    119.40    7%2 o
   1   5 -10    394.43   1106.20    172.70    7%2 o
   4 -10  -9    121.65    247.20     91.00    7%2 <
   1   4  -9   1640.00   2277.40    205.60    7%2 o
   0   9  -9    722.60   1364.90    133.10    7%2 o
   4 -11  -8     86.92    167.60     85.00    7%2 <
   1   3  -8   4854.70   7284.80    286.30    7%2 o
   0   8  -8   1280.60   1492.20    158.50    7%2 o
   1   2  -7   8138.10  12596.10    380.80    7%2 o
   0   7  -7   1559.90   1482.30    164.50    7%2 o
   1   1  -6   1493.10   4489.10    379.10    7%2 o
   0   6  -6    729.16   1057.20    166.80    7%2 o
  -1  11  -6    134.36    361.40     97.70    7%2 o
   3  -9  -5    358.30    323.20    140.50    7%2 <
   0   5  -5  19861.00  22315.70    427.80    7%2 o
  -1  10  -5   1785.40   2207.90    167.10    7%2 o
   3 -10  -4     25.87     18.40     88.10    7%2 <
   0   4  -4   4989.80   9208.70    362.10    7%2 o
  -1   9  -4   4272.20   5528.70    239.10    7%2 o
   3 -11  -3     62.57     92.80     79.70    7%2 <
   0   3  -3  66678.00  42561.40    611.40    7%2 o
  -1   8  -3    751.45   1238.20    166.00    7%2 o
  -2  13  -3     27.01     26.60     72.70    7%2 <
   3 -12  -2    283.59    416.60     89.70    7%2 o
   0   2  -2 113540.00  67427.90    875.50    7%2 o
  -1   7  -2   7890.50   8715.50    283.90    7%2 o
  -2  12  -2     97.76    226.90     93.40    7%2 <
   3 -13  -1    200.39    148.40     75.80    7%2 <
  -1   6  -1   6145.80   4452.90    270.20    7%2 o
  -2  11  -1    177.79    453.70    113.80    7%2 o
  -1   5   0  12068.00  14521.40    396.30    7%2 o
  -2  10   0    277.73    534.90    121.60    7%2 o
   2 -10   1     18.82     -3.90    108.80    7%2 <
  -1   4   1   8225.00  10679.20    400.20    7%2 o
  -2   9   1   3510.60   3119.70    200.50    7%2 o
   2 -11   2   2028.60   1755.30    143.40    7%2 o
  -1   3   2  28055.00  61091.20    747.60    7%2 o
  -2   8   2    568.89   1175.40    158.70    7%2 o
  -3  13   2    566.27    879.30    109.00    7%2 o
   2 -12   3   1024.90    560.60    104.50    7%2 o
  -2   7   3   2539.40   2427.80    194.60    7%2 o
  -3  12   3    254.51    237.30     98.70    7%2 <
   2 -13   4     86.80    101.90     56.50    7%2 <
  -2   6   4   1716.80   2096.00    224.80    7%2 o
  -3  11   4    165.50     51.30     98.00    7%2 <
   1  -9   5   3715.40   4288.10    231.10    7%2 o
  -2   5   5   2052.00   3121.00    272.60    7%2 o
  -3  10   5    319.41    424.20    117.60    7%2 o
   1 -10   6    396.67    479.80    115.00    7%2 o
  -3   9   6    184.71    335.30    139.10    7%2 <
   1 -11   7    921.39    985.30    116.80    7%2 o
   1 -12   8     31.76     60.50     54.40    7%2 <
   0  -8   9    179.40     24.30    101.10    7%2 <
   0  -9  10     39.13     99.30     83.50    7%2 <
   0 -10  11     48.28    141.50     75.60    7%2 <
  -1  -6  12    309.73    385.60    115.30    7%2 o
  -1  -7  13     43.03    114.10     71.20    7%2 <
  -1  -8  14     72.44     96.20     67.90    7%2 <
  -2  -3  14     80.13    210.70     97.90    7%2 <
  -2  -4  15    293.85    163.20     93.00    7%2 <
  -2  -5  16    525.68    445.50    100.60    7%2 o
   1   8 -13    267.17    431.10     91.10    7%2 o
   1   7 -12    437.82    585.70     98.00    7%2 o
   0  11 -11     59.22     19.20     68.60    7%2 <
   0  10 -10    160.10    218.50     83.80    7%2 <
  -1  12  -7    120.12     93.00     63.30    7%2 <
   2  -9   0   1749.30   1973.20    172.10    7%2 o
   0  -7   8   1568.00   2491.80    179.70    7%2 o
   2   5 -15   1056.90   1750.60    142.40    8%2 o
   2   4 -14    823.15    905.20    130.50    8%2 o
   2   3 -13   4804.70   4198.70    203.20    8%2 o
   2   2 -12   5192.90   6591.00    265.30    8%2 o
   2   1 -11   1215.80   1176.90    225.90    8%2 o
   2   0 -10   1138.20   1631.20    253.60    8%2 o
   3  -7  -7  13284.00  12096.40    346.10    8%2 o
   3  -8  -6   6367.40   5844.60    266.60    8%2 o
   2  -8  -1    675.60   1024.90    176.00    8%2 o
   3 -13   0     31.86    157.20     89.80    8%2 <
   1  -8   4   1151.80   1556.10    173.30    8%2 o
   0  -6   7   3032.60   2965.20    216.30    8%2 o
   0  -7   8   2177.10   2491.80    179.70    8%2 o
  -3   7   8   5169.00   6388.60    270.30    8%2 o
  -3   6   9   2073.20   2862.20    243.60    8%2 o
  -1  -4  10   2384.10   2501.50    203.20    8%2 o
  -4  10  10    163.77    102.10     85.80    8%2 <
  -1  -5  11   4311.40   3155.90    194.20    8%2 o
  -4   9  11     29.50    130.60     98.30    8%2 <
  -2  -2  13    608.27    545.40    132.80    8%2 o
  -2  -3  14    159.85    210.70     97.90    8%2 <
  -3   1  15    440.93    -81.50    137.30    8%2 <
   4 -11  -7   2189.30    665.20    121.00    8%2 o
  -1  11  -7    965.31    980.40    118.40    8%2 o
   4 -12  -6    240.78    320.50     79.60    8%2 o
  -2  13  -4     22.01    137.30     71.90    8%2 <
  -2  12  -3    998.33    847.00    109.40    8%2 o
   3 -11  -2    256.48    659.70    120.00    8%2 o
   2  -7  -2  18628.00  17284.20    370.50    8%2 o
   3 -12  -1     14.23     59.00     79.90    8%2 <
   1  -6   2  44020.00  44755.90    596.90    8%2 o
   2 -11   3     27.69    145.40     95.30    8%2 <
   1  -7   3   2172.70   2614.00    204.50    8%2 o
   2 -12   4    442.95    329.40     99.30    8%2 o
   0  -5   6   4362.40   4062.60    224.50    8%2 o
   1 -10   7   1766.20   2258.10    165.00    8%2 o
   1 -11   8     18.40    165.00     85.30    8%2 <
   0  -9  11     50.71    -73.10     81.10    8%2 <
   0 -10  12     70.77    112.90     62.20    8%2 <
  -1  -7  14    516.73    347.10     83.90    8%2 o
   0  10 -11     28.87     90.80     47.10    8%2 <
   0   9 -10     20.42    444.80     86.70    8%2 o
  -1  10  -6    512.58    582.00     87.10    8%2 o
  -1   9  -5   4526.10   4050.40    205.50    8%2 o
  -2  11  -2   1571.70   1874.90    144.20    8%2 o
  -2  10  -1    125.37    112.70     95.20    8%2 <
  -3  13   1    369.74    170.50     71.90    8%2 <
   0  -8  10    388.53    620.10    108.10    8%2 o
   3   1 -16    100.79    234.60     93.30    9%2 <
   3   0 -15    570.08    331.80    120.30    9%2 <
   2   0 -10    518.72   1631.20    253.60    9%2 o
   4 -10  -8   3045.10   2421.80    179.20    9%2 o
   3  -6  -8  11844.00  11446.40    378.80    9%2 o
   4 -11  -7    296.63    665.20    121.00    9%2 o
   3  -7  -7  14020.00  12096.40    346.10    9%2 o
  -1  11  -7   1146.90    980.40    118.40    9%2 o
   4 -12  -6    251.99    320.50     79.60    9%2 o
  -2  13  -4     26.20    137.30     71.90    9%2 <
   2  -6  -3   1563.30   2045.10    237.00    9%2 o
  -2  12  -3   1144.90    847.00    109.40    9%2 o
   3 -11  -2    337.00    659.70    120.00    9%2 o
   2  -7  -2  15993.00  17284.20    370.50    9%2 o
   3 -12  -1     31.38     59.00     79.90    9%2 <
   1  -6   2  47743.00  44755.90    596.90    9%2 o
   2 -11   3    150.66    145.40     95.30    9%2 <
   0  -5   6   3259.70   4062.60    224.50    9%2 o
   1 -10   7   1835.90   2258.10    165.00    9%2 o
  -1  -3   9   4151.90   5429.60    249.00    9%2 o
  -3   6   9   2163.30   2862.20    243.60    9%2 o
  -4  10  10    238.68    102.10     85.80    9%2 <
   0  -9  11     14.05    -73.10     81.10    9%2 <
  -4   9  11     87.79    130.60     98.30    9%2 <
  -2  -1  12    942.70   1455.40    199.50    9%2 o
  -4   8  12   2333.50   1775.40    164.80    9%2 o
  -1  -7  14    114.47    347.10     83.90    9%2 o
  -3   1  15     97.11    -81.50    137.30    9%2 <
   1   8 -14     31.80    125.20     62.00    9%2 <
   1   7 -13     19.55    138.50     68.50    9%2 <
   1   6 -12    804.09    570.90    113.20    9%2 o
   0  10 -11     20.08     90.80     47.10    9%2 <
   0   9 -10    252.84    444.80     86.70    9%2 o
   0   8  -9    236.30      7.10     94.50    9%2 <
   0   7  -8   2298.50   2410.90    178.90    9%2 o
   0   6  -7   2802.80   2865.10    207.70    9%2 o
  -1  10  -6    482.25    582.00     87.10    9%2 o
  -1   9  -5   4229.50   4050.40    205.50    9%2 o
  -1   8  -4   1789.90   2183.10    180.60    9%2 o
   3 -10  -3   1065.50   1174.40    142.40    9%2 o
  -1   7  -3   1705.70   2301.20    191.50    9%2 o
  -2  11  -2   2120.70   1874.90    144.20    9%2 o
  -2  10  -1     36.24    112.70     95.20    9%2 <
  -2   9   0   1229.00   1233.70    154.10    9%2 o
   1  -5   1    368.66    134.80    262.80    9%2 <
  -2   8   1    289.16    753.60    164.50    9%2 o
  -3  13   1    242.98    170.50     71.90    9%2 <
   2 -10   2    150.57    216.90    111.30    9%2 <
  -3  12   2    839.49    892.10    107.60    9%2 o
  -3  11   3    171.09    209.50     78.80    9%2 <
  -3  10   4    151.09    296.90    111.20    9%2 <
   0  -4   5  14697.00  14073.30    387.10    9%2 o
   1  -9   6     15.94   -127.80    113.90    9%2 <
   0  -7   9     61.67     -4.50    145.80    9%2 <
   0  -8  10    303.73    620.10    108.10    9%2 o
  -1  -6  13     63.38    284.80     80.30    9%2 o
  -2  -4  16     92.23     -8.10     68.80    9%2 <
   3 -13   1    107.25    158.60     57.00    9%2 <
   2  -9   1   1873.10   1588.70    167.10    9%2 o
   2 -12   5    256.36    246.00     83.40    9%2 <
   1  -8   5   2177.80   1905.50    171.20    9%2 o
   1 -11   9    138.35    134.50     59.00    9%2 <
   3   0 -15    266.37    331.80    120.30   10%2 <
   3  -1 -14   1314.00   1330.30    167.40   10%2 o
   1   8 -14     28.86    125.20     62.00   10%2 <
   1   7 -13     14.23    138.50     68.50   10%2 <
   1   6 -12    778.85    570.90    113.20   10%2 o
   2  -1  -9   4597.30   6265.10    352.40   10%2 o
   4 -10  -8   2730.60   2421.80    179.20   10%2 o
   3  -6  -8  12944.00  11446.40    378.80   10%2 o
   0   7  -8   2021.10   2410.90    178.90   10%2 o
   0   6  -7   2973.30   2865.10    207.70   10%2 o
   3 -10  -3   1069.00   1174.40    142.40   10%2 o
   2  -6  -3   1223.50   2045.10    237.00   10%2 o
  -1   7  -3   1444.20   2301.20    191.50   10%2 o
  -2   9   0   1285.30   1233.70    154.10   10%2 o
   1  -5   1    367.26    134.80    262.80   10%2 <
  -2   8   1    282.99    753.60    164.50   10%2 o
  -3  12   2    906.63    892.10    107.60   10%2 o
  -3  11   3    161.80    209.50     78.80   10%2 <
  -3  10   4     87.85    296.90    111.20   10%2 <
   0  -4   5  11626.00  14073.30    387.10   10%2 o
  -1  -2   8  21424.00  19760.10    427.90   10%2 o
   0  -7   9     80.45     -4.50    145.80   10%2 <
  -4   8  12   2338.20   1775.40    164.80   10%2 o
  -3   2  14    815.55   1051.20    171.20   10%2 o
  -2  -3  15    886.53    993.50    128.90   10%2 o
   2   5 -16    340.28    260.00     89.60   10%2 <
   2   4 -15    358.18    316.00     91.80   10%2 o
   1   5 -11   3548.70   3023.00    193.30   10%2 o
   1   4 -10   1588.70   2286.60    196.30   10%2 o
   4  -9  -9    876.10    732.10    141.00   10%2 o
  -1  11  -8     38.49     93.40     78.90   10%2 <
   0   5  -6   5539.50   6033.20    249.80   10%2 o
   4 -12  -5    173.07    132.50     91.70   10%2 <
   0   4  -5  14878.00  15121.80    391.70   10%2 o
   3  -9  -4    521.63    505.10    148.10   10%2 o
   2  -5  -4  46836.00  47228.40    616.10   10%2 o
  -2  12  -4    523.73    319.70     88.40   10%2 o
  -1   6  -2  41016.00  36205.90    527.90   10%2 o
  -1   5  -1    676.02   1479.60    257.10   10%2 o
   3 -12   0    161.09    138.80     77.40   10%2 <
   2  -8   0    686.92    784.30    170.60   10%2 o
   3 -13   1     64.35    158.60     57.00   10%2 <
   2  -9   1   1777.10   1588.70    167.10   10%2 o
  -2   7   2  16698.00  14373.10    360.40   10%2 o
   2 -11   4    190.19    289.30     99.50   10%2 <
   2 -12   5    209.54    246.00     83.40   10%2 <
   1  -8   5   1752.60   1905.50    171.20   10%2 o
  -3   9   5   4326.00   4849.00    218.60   10%2 o
   1 -10   8   2799.90   2145.40    156.50   10%2 o
   0  -6   8    887.31   1139.50    167.40   10%2 o
  -4  11   8    486.06    748.50    108.40   10%2 o
   1 -11   9    109.85    134.50     59.00   10%2 <
   0  -9  12    126.40      8.20     79.50   10%2 <
  -1  -5  12    395.46   1020.30    119.20   10%2 o
  -1  -7  15    336.53    412.60     79.00   10%2 o
   0  10 -12     47.47    114.20     64.00   10%2 <
  -1  10  -7    998.33   1842.30    144.30   10%2 o
  -3  13   0    193.62    243.90     71.90   10%2 o
   1  -7   4   1350.80   3144.70    191.30   10%2 o
   0  -8  11   1029.60   1102.80    123.10   10%2 o
   2   5 -16    374.47    260.00     89.60   11%2 <
   2   4 -15    377.53    316.00     91.80   11%2 o
   3  -1 -14   1355.10   1330.30    167.40   11%2 o
   2   3 -14    174.90    512.20    120.40   11%2 o
   4  -8 -10   6340.30   5686.70    243.20   11%2 o
   1   4 -10   1685.70   2286.60    196.30   11%2 o
   4  -9  -9    902.01    732.10    141.00   11%2 o
   1   3  -9   2955.40   3446.20    236.00   11%2 o
  -1  11  -8     33.99     93.40     78.90   11%2 <
   4 -12  -5    163.10    132.50     91.70   11%2 <
   0   4  -5  16173.00  15121.80    391.70   11%2 o
   3  -9  -4    516.14    505.10    148.10   11%2 o
   2  -5  -4  50633.00  47228.40    616.10   11%2 o
  -2  12  -4    569.50    319.70     88.40   11%2 o
  -1   5  -1    863.37   1479.60    257.10   11%2 o
   3 -12   0    157.91    138.80     77.40   11%2 <
   2  -8   0    704.05    784.30    170.60   11%2 o
   1  -4   0  22760.00  26869.70    528.10   11%2 o
  -2   7   2  17385.00  14373.10    360.40   11%2 o
   2 -11   4    216.19    289.30     99.50   11%2 <
   0  -3   4   4358.40   4864.30    328.10   11%2 o
  -3   9   5   4191.50   4849.00    218.60   11%2 o
  -3   8   6   6270.10   6279.20    264.40   11%2 o
   1 -10   8   3164.50   2145.40    156.50   11%2 o
   0  -6   8    974.78   1139.50    167.40   11%2 o
  -4  11   8    621.53    748.50    108.40   11%2 o
  -1  -4  11    121.54    256.60    153.80   11%2 <
  -4   7  13    440.47    528.20    155.50   11%2 o
  -2  -2  14    185.51    313.30    122.30   11%2 <
  -1  -7  15    286.61    412.60     79.00   11%2 o
  -3   0  17   1502.90   1179.90    132.90   11%2 o
   0  10 -12     49.99    114.20     64.00   11%2 <
   0   9 -11     37.60    157.30     71.60   11%2 <
   0   8 -10    337.18    267.40     96.50   11%2 <
  -1  10  -7   1103.40   1842.30    144.30   11%2 o
   4 -11  -6   1659.90   2161.80    148.40   11%2 o
  -1   9  -6     21.31     27.90    105.60   11%2 <
   3  -8  -5   4483.70   4578.60    242.40   11%2 o
  -2  11  -3     70.29    216.70     89.40   11%2 <
  -2  10  -2    171.74    319.40    104.80   11%2 o
   3 -11  -1    648.18    419.00    101.90   11%2 o
  -3  13   0    253.21    243.90     71.90   11%2 o
  -3  12   1    167.53    217.20     75.70   11%2 <
   3 -13   2    197.22    279.30     84.10   11%2 o
   2 -10   3   3110.60   3008.10    175.60   11%2 o
  -2   6   3   2052.80   1790.80    201.70   11%2 o
   1  -7   4   1858.40   3144.70    191.30   11%2 o
   2 -12   6    103.04    140.20     89.80   11%2 <
   1  -9   7   3401.90   2930.10    178.10   11%2 o
   0  -5   7   6173.40   6121.70    268.20   11%2 o
  -4  10   9    722.81    865.10    115.80   11%2 o
   1 -11  10    453.61    593.40     95.70   11%2 o
   0  -8  11   1064.00   1102.80    123.10   11%2 o
  -1  -6  14    132.85    141.70     76.50   11%2 <
   1   7 -14     96.33     73.90     65.60   11%2 <
   0   7  -9     29.95    119.50    112.50   11%2 <
  -1   8  -5   1951.20   2190.20    168.20   11%2 o
  -2   9  -1   1885.10   1735.00    157.90   11%2 o
  -3  11   2    592.39    580.90     96.50   11%2 o
   0  -7  10   3106.10   3389.60    176.90   11%2 o
   0  -9  13    297.54    440.80     88.10   11%2 o
   2   5 -16    371.56    260.00     89.60   12%2 <
   2   4 -15    376.82    316.00     91.80   12%2 o
   3  -1 -14   1237.60   1330.30    167.40   12%2 o
   2   3 -14    184.55    512.20    120.40   12%2 o
   0  10 -12     49.32    114.20     64.00   12%2 <
   0   9 -11     38.08    157.30     71.60   12%2 <
   1   4 -10   1635.60   2286.60    196.30   12%2 o
   0   8 -10    338.35    267.40     96.50   12%2 <
   4  -9  -9    870.11    732.10    141.00   12%2 o
   1   3  -9   2941.50   3446.20    236.00   12%2 o
  -1  11  -8     30.67     93.40     78.90   12%2 <
  -1  10  -7   1098.00   1842.30    144.30   12%2 o
   4 -11  -6   1590.80   2161.80    148.40   12%2 o
  -1   9  -6     14.76     27.90    105.60   12%2 <
   4 -12  -5    144.95    132.50     91.70   12%2 <
   3  -8  -5   4588.50   4578.60    242.40   12%2 o
   0   4  -5  15927.00  15121.80    391.70   12%2 o
   3  -9  -4    480.94    505.10    148.10   12%2 o
   2  -5  -4  49759.00  47228.40    616.10   12%2 o
  -2  12  -4    567.73    319.70     88.40   12%2 o
  -2  11  -3     67.31    216.70     89.40   12%2 <
  -2  10  -2    163.17    319.40    104.80   12%2 o
   3 -11  -1    648.26    419.00    101.90   12%2 o
  -1   5  -1    971.77   1479.60    257.10   12%2 o
   3 -12   0    151.00    138.80     77.40   12%2 <
   2  -8   0    669.26    784.30    170.60   12%2 o
   1  -4   0  22906.00  26869.70    528.10   12%2 o
  -3  13   0    269.73    243.90     71.90   12%2 o
  -3  12   1    167.29    217.20     75.70   12%2 <
   3 -13   2    191.28    279.30     84.10   12%2 o
  -2   7   2  16804.00  14373.10    360.40   12%2 o
   2 -10   3   3114.70   3008.10    175.60   12%2 o
  -2   6   3   2174.40   1790.80    201.70   12%2 o
   2 -11   4    207.70    289.30     99.50   12%2 <
   1  -7   4   2160.00   3144.70    191.30   12%2 o
   0  -3   4   4242.00   4864.30    328.10   12%2 o
  -3   9   5   3843.70   4849.00    218.60   12%2 o
   2 -12   6     92.61    140.20     89.80   12%2 <
  -3   8   6   6273.60   6279.20    264.40   12%2 o
   1  -9   7   3420.60   2930.10    178.10   12%2 o
   0  -5   7   6158.80   6121.70    268.20   12%2 o
   1 -10   8   3237.30   2145.40    156.50   12%2 o
   0  -6   8    921.06   1139.50    167.40   12%2 o
  -1  -2   8  23013.00  19760.10    427.90   12%2 o
  -4  11   8    667.40    748.50    108.40   12%2 o
  -4  10   9    738.30    865.10    115.80   12%2 o
   1 -11  10    475.74    593.40     95.70   12%2 o
   0  -8  11   1018.10   1102.80    123.10   12%2 o
  -1  -4  11    114.40    256.60    153.80   12%2 <
  -4   7  13    406.64    528.20    155.50   12%2 o
  -1  -6  14    118.09    141.70     76.50   12%2 <
  -2  -2  14    183.07    313.30    122.30   12%2 <
  -1  -7  15    249.55    412.60     79.00   12%2 o
  -3   0  17   1534.30   1179.90    132.90   12%2 o
   1   7 -14    100.13     73.90     65.60   12%2 <
   0   7  -9     30.17    119.50    112.50   12%2 <
  -1   8  -5   1854.30   2190.20    168.20   12%2 o
  -2   9  -1   1871.30   1735.00    157.90   12%2 o
  -3  11   2    635.41    580.90     96.50   12%2 o
   0  -7  10   3066.10   3389.60    176.90   12%2 o
   0  -9  13    298.30    440.80     88.10   12%2 o
   3  -2 -13   1873.60   2561.70    225.10   13%2 o
   1   6 -13    111.13     24.30     74.00   13%2 <
   2   1 -12   1787.60   3041.90    238.10   13%2 o
  -1  11  -9    145.07    389.30     75.80   13%2 o
   1   2  -8  20730.00  20162.60    421.90   13%2 o
   0   6  -8    840.43   1386.80    157.80   13%2 o
   4 -10  -7    714.87    760.10    122.80   13%2 o
   3  -7  -6    741.91   1180.50    202.10   13%2 o
  -2  12  -5    277.02    140.80     78.80   13%2 <
  -1   7  -4   2978.80   3234.90    197.50   13%2 o
   3 -10  -2   5598.70   3041.10    181.70   13%2 o
  -1   4   0  20119.00  23103.90    494.20   13%2 o
  -2   8   0    273.34    123.90    150.20   13%2 <
   3 -12   1   1306.10    718.70    111.10   13%2 o
   2  -9   2   1423.20    779.40    149.40   13%2 o
   1  -6   3  10273.00   8381.50    291.10   13%2 o
  -3  10   3    400.23    579.70    110.00   13%2 o
  -2   5   4  49443.00  53003.60    644.50   13%2 o
   2 -11   5    180.75    242.60     99.70   13%2 <
   1  -8   6    367.09    370.70    145.90   13%2 <
  -4  12   6     80.04    100.10     79.30   13%2 <
  -1  -1   7   8180.50   9832.40    381.00   13%2 o
  -3   7   7  11620.00  10576.90    336.00   13%2 o
   1 -10   9    253.74    300.00     98.60   13%2 o
  -1  -3  10   7677.20   7057.50    264.10   13%2 o
  -4   9  10    611.84    976.50    132.80   13%2 o
  -1  -5  13    207.45    100.80     92.50   13%2 <
  -2  -1  13   4241.10   4249.30    222.70   13%2 o
  -2  -3  16    351.64    612.60     96.10   13%2 o
  -3   1  16    183.11    603.50    122.90   13%2 o
   2   4 -16     61.12    227.80     83.00   13%2 <
   1   5 -12    352.33   1158.30    119.20   13%2 o
   0   9 -12    173.19    275.10     74.30   13%2 o
   1   4 -11    260.00    643.90    166.70   13%2 o
   0   8 -11    893.73    893.60    115.10   13%2 o
  -1  10  -8   3924.00   3143.30    169.30   13%2 o
   0   5  -7   6909.30   6349.60    268.40   13%2 o
  -1   9  -7   1303.50   2188.10    160.40   13%2 o
   4 -12  -4    162.78    252.60     74.60   13%2 o
  -2  11  -4     69.83    120.60     85.10   13%2 <
   3  -9  -3    322.54    655.70    155.00   13%2 o
  -1   6  -3   8809.00  10309.60    314.30   13%2 o
   2  -6  -2   3277.80   8072.70    302.10   13%2 o
  -3  13  -1     73.06    181.60     48.40   13%2 o
   3 -11   0    971.86    798.90    110.60   13%2 o
  -3  12   0    159.10    223.10     78.80   13%2 <
   2  -8   1   2193.60   1973.30    197.40   13%2 o
   3 -13   3     24.35      7.90     71.20   13%2 <
   2 -10   4   1681.80   2015.30    153.40   13%2 o
  -3   9   4    720.54   1580.20    164.20   13%2 o
   1  -7   5   8719.20   5528.20    235.30   13%2 o
   0  -4   6  17616.00  15690.00    383.10   13%2 o
   2 -12   7     11.20    -18.60     78.80   13%2 <
  -4  11   7    176.36    295.90     92.70   13%2 o
   1  -9   8     52.18    319.60    100.20   13%2 o
   0  -6   9    132.74    465.90    133.30   13%2 o
   0  -8  12     43.75     36.10     76.80   13%2 <
  -1  -6  15     90.38    217.20     77.70   13%2 <
  -2  10  -3    877.97   1126.90    113.80   13%2 o
   1 -10  10    419.25    336.20     90.00   13%2 o
   2   4 -16     54.65    227.80     83.00   14%2 <
   2   1 -12   1337.90   3041.90    238.10   14%2 o
   0   9 -12    156.20    275.10     74.30   14%2 o
   4  -7 -11   3971.30   2761.30    197.40   14%2 o
   1   4 -11    249.47    643.90    166.70   14%2 o
   0   8 -11    810.47    893.60    115.10   14%2 o
   0   5  -7   6019.20   6349.60    268.40   14%2 o
  -1   9  -7   1144.70   2188.10    160.40   14%2 o
   3  -7  -6    602.27   1180.50    202.10   14%2 o
   2  -4  -5  16842.00  12947.30    440.20   14%2 o
   3  -9  -3    248.03    655.70    155.00   14%2 o
  -1   6  -3   7657.40  10309.60    314.30   14%2 o
   2  -6  -2   2841.00   8072.70    302.10   14%2 o
   1  -3  -1 108300.00  97859.40    968.40   14%2 o
   3 -11   0    830.91    798.90    110.60   14%2 o
  -3  12   0    132.71    223.10     78.80   14%2 <
   2  -8   1   1930.00   1973.30    197.40   14%2 o
   3 -13   3     22.11      7.90     71.20   14%2 <
   2 -10   4   1468.80   2015.30    153.40   14%2 o
  -2   5   4  43014.00  53003.60    644.50   14%2 o
  -3   9   4    631.09   1580.20    164.20   14%2 o
   1  -7   5   7808.20   5528.20    235.30   14%2 o
   0  -4   6  15257.00  15690.00    383.10   14%2 o
   2 -12   7      8.70    -18.60     78.80   14%2 <
  -4  11   7    164.74    295.90     92.70   14%2 o
   1  -9   8     46.94    319.60    100.20   14%2 o
   0  -6   9    117.20    465.90    133.30   14%2 o
  -4   8  11    714.97   1328.10    138.40   14%2 o
  -1  -4  12   2582.60   3880.20    213.30   14%2 o
  -2  -1  13   3766.50   4249.30    222.70   14%2 o
  -1  -6  15     78.12    217.20     77.70   14%2 <
  -3   1  16    140.09    603.50    122.90   14%2 o
   2   3 -15    538.01    912.20    113.80   14%2 o
   1   7 -15     31.10     28.30     66.40   14%2 <
   1   6 -14    352.42    609.60    104.40   14%2 o
   0   7 -10   1739.30   2184.20    153.90   14%2 o
  -1  11 -10    444.65    443.00     82.00   14%2 o
   4  -9  -8   1431.20   2324.70    158.80   14%2 o
  -1   8  -6    246.45    550.90    134.10   14%2 o
  -2  12  -6     59.78     53.30     77.70   14%2 <
   4 -11  -5   1312.30    712.30    129.10   14%2 o
  -2  10  -3    748.46   1126.90    113.80   14%2 o
  -2   9  -2    647.34   1359.60    162.30   14%2 o
  -3  13  -2     63.71     71.80     66.40   14%2 <
   3 -10  -1    198.44    347.80    130.70   14%2 <
  -2   7   1   2876.90   2913.70    197.40   14%2 o
  -3  11   1    157.16    320.60     88.20   14%2 o
   3 -12   2    288.29    179.50     89.40   14%2 <
   1  -5   2  59661.00  46018.80    569.30   14%2 o
   2  -9   3   1540.10   1864.60    193.40   14%2 o
  -3   8   5   8466.80   7650.00    267.00   14%2 o
  -4  12   5    875.54    824.10    108.10   14%2 o
   2 -11   6   1581.50    637.10    117.20   14%2 o
   1  -8   7    355.72    485.50    136.90   14%2 o
   0  -5   8    683.63   1387.50    180.90   14%2 o
  -4  10   8   1948.20   1716.80    148.10   14%2 o
   1 -10  10    376.32    336.20     90.00   14%2 o
   0  -7  11   2333.50   1081.10    123.20   14%2 o
   0  -8  13     15.20     18.00     88.10   14%2 <
  -1  -5  14    514.91    425.80    104.10   14%2 o
  -2  -2  15    201.07    684.30    118.30   14%2 o
  -1  10  -9    699.40    757.40    102.90   14%2 o
   2   3 -15    529.42    912.20    113.80   15%2 o
   1   7 -15     29.77     28.30     66.40   15%2 <
   1   6 -14    348.92    609.60    104.40   15%2 o
   4  -7 -11   3832.10   2761.30    197.40   15%2 o
   1   4 -11    247.99    643.90    166.70   15%2 o
   0   7 -10   1713.20   2184.20    153.90   15%2 o
  -1  11 -10    396.05    443.00     82.00   15%2 o
   4  -9  -8   1506.70   2324.70    158.80   15%2 o
   1   1  -7  24644.00  18337.00    456.60   15%2 o
   0   4  -6  13296.00  17985.50    406.00   15%2 o
  -1   8  -6    245.34    550.90    134.10   15%2 o
  -2  12  -6     66.51     53.30     77.70   15%2 <
   4 -11  -5   1266.60    712.30    129.10   15%2 o
   3  -8  -4   1054.80    860.50    193.80   15%2 o
   2  -6  -2   2641.70   8072.70    302.10   15%2 o
  -2   9  -2    615.27   1359.60    162.30   15%2 o
  -3  13  -2     61.51     71.80     66.40   15%2 <
   3 -10  -1    194.01    347.80    130.70   15%2 <
   1  -3  -1 104820.00  97859.40    968.40   15%2 o
  -2   7   1   2701.70   2913.70    197.40   15%2 o
  -3  11   1    147.16    320.60     88.20   15%2 o
   3 -12   2    282.61    179.50     89.40   15%2 <
   1  -5   2  58960.00  46018.80    569.30   15%2 o
   2  -9   3   1485.10   1864.60    193.40   15%2 o
  -3   8   5   8138.80   7650.00    267.00   15%2 o
  -4  12   5    832.94    824.10    108.10   15%2 o
   2 -11   6   1548.20    637.10    117.20   15%2 o
   1  -8   7    337.34    485.50    136.90   15%2 o
   0  -5   8    646.69   1387.50    180.90   15%2 o
  -4  10   8   1938.30   1716.80    148.10   15%2 o
  -1  -2   9   7443.80  10256.60    333.00   15%2 o
   1 -10  10    380.90    336.20     90.00   15%2 o
  -2   1  10  33423.00  36508.30    567.30   15%2 o
   0  -7  11   2208.00   1081.10    123.20   15%2 o
  -4   8  11    702.48   1328.10    138.40   15%2 o
  -1  -4  12   2325.20   3880.20    213.30   15%2 o
   0  -8  13     14.76     18.00     88.10   15%2 <
  -1  -5  14    522.31    425.80    104.10   15%2 o
  -2  -2  15    206.07    684.30    118.30   15%2 o
  -3   1  16    123.64    603.50    122.90   15%2 o
   0   9 -13    315.52    568.50     84.90   15%2 o
   1   3 -10    739.71   1524.10    182.40   15%2 o
   0   6  -9   1120.80   1037.20    150.20   15%2 o
  -1  10  -9    676.76    757.40    102.90   15%2 o
  -1   9  -8     49.04      9.10    108.70   15%2 <
  -1   7  -5   8973.90   8137.90    271.80   15%2 o
  -2  11  -5    376.45    480.50    101.10   15%2 o
   4 -12  -3    138.76    226.60     78.10   15%2 <
  -1   5  -2  20058.00  18849.10    408.00   15%2 o
  -2   8  -1    863.14   1067.30    174.00   15%2 o
  -3  12  -1    376.57    562.40     96.60   15%2 o
   2  -7   0    344.16    928.80    178.90   15%2 o
   3 -11   1     92.57    249.00     93.30   15%2 <
  -3  10   2    779.94   1843.10    145.00   15%2 o
   1  -6   4   4886.00   5933.10    254.90   15%2 o
   2 -10   5    896.81   1265.80    141.10   15%2 o
   1  -9   9    142.60    125.60     84.70   15%2 <
   0  -6  10     33.02    541.90    143.20   15%2 o
   1 -10  11    320.26    163.80     78.70   15%2 <
  -2  -3  17     54.20     75.80     80.30   15%2 <
   2   2 -14     60.30    153.80    109.20   16%2 <
   1   5 -13    147.16     23.60     99.60   16%2 <
   0   9 -13    408.76    568.50     84.90   16%2 o
   0   8 -12     41.86    256.20     86.60   16%2 <
   1   3 -10    899.00   1524.10    182.40   16%2 o
   0   6  -9   1164.80   1037.20    150.20   16%2 o
  -1   9  -8     51.96      9.10    108.70   16%2 <
   3  -6  -7   6012.40   8348.90    327.40   16%2 o
   4 -10  -6     85.56     95.40    102.70   16%2 <
   0   4  -6  21884.00  17985.50    406.00   16%2 o
  -1   7  -5  10108.00   8137.90    271.80   16%2 o
   3  -8  -4   1261.00    860.50    193.80   16%2 o
   4 -12  -3    200.36    226.60     78.10   16%2 <
  -1   5  -2  19596.00  18849.10    408.00   16%2 o
  -2   8  -1    991.51   1067.30    174.00   16%2 o
  -3  12  -1    445.74    562.40     96.60   16%2 o
   2  -7   0    411.87    928.80    178.90   16%2 o
   3 -11   1    174.05    249.00     93.30   16%2 <
  -2   6   2   3127.40   4608.10    257.90   16%2 o
  -3  10   2   1102.80   1843.10    145.00   16%2 o
   1  -6   4   6058.20   5933.10    254.90   16%2 o
   2 -10   5   1099.10   1265.80    141.10   16%2 o
   0  -3   5  38499.00  35167.10    554.60   16%2 o
  -4  11   6    240.92    537.30     96.90   16%2 o
  -3   6   8  17120.00  16272.80    378.00   16%2 o
   1  -9   9    193.56    125.60     84.70   16%2 <
  -1  -2   9   8820.10  10256.60    333.00   16%2 o
  -4   9   9    786.47    900.00    130.20   16%2 o
   0  -6  10     45.14    541.90    143.20   16%2 o
   1 -10  11    352.97    163.80     78.70   16%2 <
  -1  -3  11    545.10    572.20    193.40   16%2 <
  -2   0  12   7516.00   9284.10    312.90   16%2 o
  -2  -3  17     71.10     75.80     80.30   16%2 <
   4 -11  -4    205.58    211.30    106.60   16%2 <
  -2  10  -4   1422.00   1909.40    152.00   16%2 o
  -3  13  -3     68.88    171.40     63.10   16%2 <
   3  -9  -2    346.81    892.30    142.40   16%2 o
  -3  11   0   1057.00    682.80    109.30   16%2 o
   2  -8   2    507.52    862.10    144.00   16%2 o
   3 -12   3    220.77    -15.70     81.40   16%2 <
  -3   9   3     69.27     10.70    100.30   16%2 <
   1  -7   6   1462.40   2891.90    197.90   16%2 o
   2 -11   7     39.27    120.40     85.70   16%2 <
   0  -7  12    277.90    241.40     92.90   16%2 <
  -1  -4  13   1016.10   1216.30    141.00   16%2 o
   0  -8  14     75.50    113.20     68.50   16%2 <
   0   7 -11     61.18    254.00     91.90   16%2 <
  -1  10 -10     83.96    158.70     77.10   16%2 <
  -1   8  -7    813.25    731.10    133.70   16%2 o
  -2  11  -6   1228.90   1146.10    123.40   16%2 o
   1  -8   8   3364.60   2918.20    167.80   16%2 o
   4  -8  -9   4407.00   4060.60    205.30   17%2 o
   3  -6  -7   7832.50   8348.90    327.40   17%2 o
   0   3  -5  45323.00  40103.40    575.30   17%2 o
   2  -5  -3   5236.50   6655.80    317.60   17%2 o
  -3   7   6   1740.70   1582.90    197.40   17%2 o
  -4  10   7    668.63    919.80    115.20   17%2 o
  -2   0  12   8336.40   9284.10    312.90   17%2 o
  -2  -1  14   2132.60   2444.10    167.80   17%2 o
  -2  -2  16    187.55    349.10     88.80   17%2 o
   2   2 -14     35.22    153.80    109.20   17%2 <
   0   8 -12     24.20    256.20     86.60   17%2 <
   4 -10  -6    104.89     95.40    102.70   17%2 <
   4 -11  -4    169.45    211.30    106.60   17%2 <
  -2  10  -4   1522.30   1909.40    152.00   17%2 o
  -3  13  -3     84.62    171.40     63.10   17%2 <
   3  -9  -2    343.77    892.30    142.40   17%2 o
  -3  11   0   1073.40    682.80    109.30   17%2 o
   2  -8   2    598.58    862.10    144.00   17%2 o
  -2   6   2   3236.60   4608.10    257.90   17%2 o
   3 -12   3    225.89    -15.70     81.40   17%2 <
  -3   9   3     77.70     10.70    100.30   17%2 <
   0  -3   5  38655.00  35167.10    554.60   17%2 o
   1  -7   6   1790.50   2891.90    197.90   17%2 o
  -4  11   6    246.96    537.30     96.90   17%2 o
   2 -11   7     39.13    120.40     85.70   17%2 <
  -4   9   9    825.23    900.00    130.20   17%2 o
  -1  -3  11    538.04    572.20    193.40   17%2 <
   0  -7  12    300.54    241.40     92.90   17%2 <
  -1  -4  13    728.04   1216.30    141.00   17%2 o
   0  -8  14     86.12    113.20     68.50   17%2 <
   1   6 -15     25.25     28.00     62.70   17%2 <
   1   4 -12    151.52    423.00    108.00   17%2 o
   0   7 -11     70.30    254.00     91.90   17%2 <
  -1  10 -10     93.65    158.70     77.10   17%2 <
   0   5  -8   1213.30   1044.60    145.20   17%2 o
  -1   8  -7    775.63    731.10    133.70   17%2 o
  -2  11  -6   1291.30   1146.10    123.40   17%2 o
  -1   6  -4   6127.70   5894.50    251.90   17%2 o
  -2   9  -3   3746.20   4049.40    195.90   17%2 o
   4 -12  -2    433.76    206.20     92.60   17%2 <
  -3  12  -2    138.75     37.60     71.10   17%2 <
   3 -10   0   2409.40   2454.60    160.30   17%2 o
  -2   7   0    896.23   1316.40    157.40   17%2 o
  -3  10   1    110.32    201.00     92.80   17%2 <
   3 -11   2    463.01    380.50    106.70   17%2 o
   3 -12   4    578.80    424.80     94.60   17%2 o
   2  -9   4  11172.00  10937.80    295.50   17%2 o
  -4  12   4    490.65    351.60     86.00   17%2 o
   2 -10   6    182.26    351.40    113.10   17%2 o
   0  -4   7   4928.40   3498.50    214.60   17%2 o
   2 -11   8    322.13    277.40     91.30   17%2 o
   1  -8   8   3447.40   2918.20    167.80   17%2 o
   0  -5   9   2442.20   2220.70    172.40   17%2 o
   1  -9  10    450.59    657.40    100.50   17%2 o
   1 -10  12     15.45     19.00     70.40   17%2 <
  -1  -5  15    199.10    172.30     83.70   17%2 <
   2   1 -13   6495.10   6667.20    249.10   18%2 o
  -1  10 -11    293.46    421.00     77.70   18%2 o
   0   6 -10    270.19    609.40    130.80   18%2 o
   1   2  -9   9107.70  12491.90    344.00   18%2 o
   4  -9  -7    476.93   1863.60    163.10   18%2 o
  -2  11  -7     30.11     50.10     78.30   18%2 <
  -1   7  -6    739.39   1576.40    166.10   18%2 o
   4 -10  -5   3999.20   3642.20    196.70   18%2 o
   3  -7  -5   5735.20   5171.60    267.90   18%2 o
   0   3  -5  41903.00  40103.40    575.30   18%2 o
   3  -8  -3   1272.40   1291.80    178.00   18%2 o
  -2   8  -2    285.59    343.50    136.60   18%2 <
   2  -6  -1  15160.00  16119.10    398.20   18%2 o
  -1   4  -1  71489.00  58012.30    678.50   18%2 o
  -3  11  -1    169.10    287.20     92.20   18%2 o
   2  -7   1  10714.00  11595.60    334.00   18%2 o
   1  -5   3  64609.00  60458.20    694.10   18%2 o
  -3   8   4    446.67    246.60    152.40   18%2 <
   1  -6   5    134.60    484.70    146.20   18%2 o
  -2   4   5   1440.90   3240.90    312.60   18%2 o
  -4  11   5   1511.70   1301.10    132.20   18%2 o
  -3   7   6   1600.60   1582.90    197.40   18%2 o
   1  -7   7    914.12    955.30    178.60   18%2 o
  -4  10   7    609.64    919.80    115.20   18%2 o
   1  -8   9    251.98    103.80    120.50   18%2 <
   1  -9  11    161.50    320.10     83.90   18%2 o
   0  -6  11    842.28   1280.80    128.50   18%2 o
  -4   7  12    540.31    427.60    140.50   18%2 o
   0  -7  13    281.92    439.70     91.50   18%2 o
  -2  -1  14   1991.80   2444.10    167.80   18%2 o
  -3   2  15    648.89    746.70    132.40   18%2 o
  -2  -2  16    169.83    349.10     88.80   18%2 o
   3  -1 -15    457.48   1426.60    167.10   18%2 o
   1   5 -14    661.58    837.30    112.00   18%2 o
   2   3 -16    127.54    207.30     91.50   18%2 <
   1   6 -15     22.93     28.00     62.70   18%2 <
   1   4 -12    134.83    423.00    108.00   18%2 o
   4 -12  -2    367.57    206.20     92.60   18%2 <
  -3  12  -2    127.16     37.60     71.10   18%2 <
   3 -10   0   1933.40   2454.60    160.30   18%2 o
  -2   7   0    858.15   1316.40    157.40   18%2 o
  -3  10   1    102.50    201.00     92.80   18%2 <
   3 -11   2    423.26    380.50    106.70   18%2 o
   3 -12   4    549.11    424.80     94.60   18%2 o
   2 -10   6    166.33    351.40    113.10   18%2 o
   0  -4   7   4569.70   3498.50    214.60   18%2 o
   2 -11   8    309.57    277.40     91.30   18%2 o
   0  -5   9   2153.20   2220.70    172.40   18%2 o
   1 -10  12     16.69     19.00     70.40   18%2 <
   0   8 -13     79.59    225.10     58.20   18%2 o
  -1   9  -9    302.60    223.00     67.30   18%2 o
  -2  10  -5   1669.50   2204.50    142.30   18%2 o
   2   1 -13   6653.40   6667.20    249.10   19%2 o
   0   7 -12    553.96    919.00    118.30   19%2 o
   1   3 -11   3133.40   3656.40    231.60   19%2 o
  -1  10 -11    322.84    421.00     77.70   19%2 o
   0   6 -10    275.70    609.40    130.80   19%2 o
   1   2  -9   9462.70  12491.90    344.00   19%2 o
  -1   8  -8   2230.50   2792.60    177.40   19%2 o
   4  -9  -7    463.12   1863.60    163.10   19%2 o
   0   4  -7   4433.40   5430.40    255.30   19%2 o
  -2  11  -7     33.08     50.10     78.30   19%2 <
  -1   7  -6    777.81   1576.40    166.10   19%2 o
   4 -10  -5   3772.70   3642.20    196.70   19%2 o
   3  -7  -5   5874.30   5171.60    267.90   19%2 o
   0   3  -5  42736.00  40103.40    575.30   19%2 o
  -2   9  -4  11975.00  16391.40    355.70   19%2 o
   4 -11  -3    740.68    554.00    113.20   19%2 o
   3  -8  -3   1267.90   1291.80    178.00   19%2 o
  -1   5  -3  64232.00  57193.90    658.10   19%2 o
  -3  12  -3    289.54     90.00     79.70   19%2 <
  -2   8  -2    310.06    343.50    136.60   19%2 <
   4 -12  -1    286.17    458.20     88.70   19%2 o
   3  -9  -1    628.89    708.30    168.70   19%2 o
   2  -6  -1  15663.00  16119.10    398.20   19%2 o
  -1   4  -1  73560.00  58012.30    678.50   19%2 o
  -3  11  -1    182.53    287.20     92.20   19%2 o
   3 -10   1    764.99    461.40    117.60   19%2 o
   2  -7   1  11255.00  11595.60    334.00   19%2 o
  -3   9   2    471.75    746.70    130.60   19%2 o
   3 -11   3    881.85   1018.80    132.90   19%2 o
   2  -8   3    350.36   1008.90    153.00   19%2 o
   1  -5   3  67235.00  60458.20    694.10   19%2 o
  -2   5   3   1173.80   1924.50    244.00   19%2 o
  -4  12   3    355.76    487.20     97.20   19%2 o
  -3   8   4    457.86    246.60    152.40   19%2 <
   3 -12   5   1309.90   1074.40    121.60   19%2 o
   2  -9   5  14316.00  13877.50    345.00   19%2 o
   1  -6   5    151.68    484.70    146.20   19%2 o
  -4  11   5   1571.70   1301.10    132.20   19%2 o
   2 -10   7   2225.50   2526.30    162.00   19%2 o
   1  -7   7    954.48    955.30    178.60   19%2 o
  -4  10   7    586.93    919.80    115.20   19%2 o
  -1  -1   8   7290.30   7756.90    298.60   19%2 o
   2 -11   9     66.77    278.70     89.90   19%2 o
   1  -8   9    276.58    103.80    120.50   19%2 <
   1  -9  11    205.01    320.10     83.90   19%2 o
   0  -6  11    855.52   1280.80    128.50   19%2 o
  -1  -3  12   4452.80   5515.10    228.60   19%2 o
  -4   7  12    492.28    427.60    140.50   19%2 o
   0  -7  13    270.54    439.70     91.50   19%2 o
  -1  -4  14   1335.10   1479.00    128.70   19%2 o
  -2  -1  14   1947.70   2444.10    167.80   19%2 o
  -3   2  15    583.81    746.70    132.40   19%2 o
  -1  -5  16     51.15    137.20     78.60   19%2 <
  -2  -2  16    161.45    349.10     88.80   19%2 o
   3  -1 -15    507.24   1426.60    167.10   19%2 o
   1   5 -14    619.18    837.30    112.00   19%2 o
   2   3 -16    135.45    207.30     91.50   19%2 <
   0   8 -13     78.29    225.10     58.20   19%2 o
  -1   9  -9    280.87    223.00     67.30   19%2 o
  -2  10  -5   1717.60   2204.50    142.30   19%2 o
  -2   7   0    878.77   1316.40    157.40   19%2 o
  -3  10   1    104.73    201.00     92.80   19%2 <
   3 -11   2    470.19    380.50    106.70   19%2 o
   3 -12   4    465.54    424.80     94.60   19%2 o
   2 -11   8    257.11    277.40     91.30   19%2 o
   0  -5   9   2223.80   2220.70    172.40   19%2 o
   0   8 -14    126.78    254.20     80.40   20%2 o
   1   4 -13     61.32    149.40    110.30   20%2 <
   4  -6 -12    129.13    941.30    170.00   20%2 o
   4  -7 -10   2564.20   2863.50    201.00   20%2 o
  -1   9 -10    215.03    305.80     80.40   20%2 o
   0   5  -9   3874.80   3064.10    209.40   20%2 o
  -2  10  -6    131.76    207.90     98.00   20%2 <
  -1   6  -5    162.23    609.00    171.10   20%2 o
  -3  10   0    515.46    845.50    122.30   20%2 o
  -2   6   1  15261.00  18506.10    391.30   20%2 o
  -4  10   6    445.07    414.10    121.50   20%2 o
  -3   6   7  15186.00  13261.90    369.20   20%2 o
  -4   9   8   1280.60   1365.90    136.00   20%2 o
  -4   8  10   2009.40   1670.00    164.70   20%2 o
   0  -6  12     25.03    137.60    103.90   20%2 <
   0  -7  14     15.07     64.80     63.30   20%2 <
  -2  -1  15    209.91    591.70    111.10   20%2 o
  -2  -2  17     11.63    109.00     74.60   20%2 <
   3   0 -17    530.31    732.80    116.00   20%2 o
   2   3 -17     25.21     29.90     75.20   20%2 <
   2   2 -15    235.87    443.20     98.80   20%2 o
   1   5 -15    219.17     46.70     89.40   20%2 <
  -1  10 -12      9.96    -38.80     58.60   20%2 <
   0   6 -11     54.89    410.30     97.30   20%2 o
   4  -8  -8   4177.00   4462.50    220.70   20%2 o
  -2  11  -8    331.59    164.60     79.50   20%2 <
  -1   7  -7   1353.30   1140.00    146.40   20%2 o
  -3  11  -2    272.54    273.50     92.60   20%2 <
  -2   7  -1  14985.00  15571.10    346.20   20%2 o
   0  -2   4  24617.00  19342.20    459.60   20%2 o
  -4  11   4    244.92    135.30     96.60   20%2 <
   0  -3   6  13912.00  12876.00    371.90   20%2 o
   0  -4   8   1744.10   2110.60    175.00   20%2 o
   1  -8  10    127.59    162.30     97.70   20%2 <
   0  -5  10    119.65     30.30    125.10   20%2 <
   1  -9  12     54.23    117.00     69.30   20%2 <
   0   7 -13     95.38    184.50     71.70   20%2 <
  -1   8  -9     42.45     96.40     88.60   20%2 <
   4 -10  -4    299.65    634.00    113.40   20%2 o
  -3  12  -4    626.84    638.30     82.90   20%2 o
  -2   8  -3    593.42   1246.40    157.50   20%2 o
   4 -11  -2    840.76   1090.20    117.10   20%2 o
   4 -12   0     85.59    412.00     88.20   20%2 o
   3 -10   2    725.33    662.80    124.30   20%2 o
  -4  12   2    640.80    574.90     89.60   20%2 o
   3 -11   4    161.13    328.00    104.00   20%2 o
   2  -8   4   3358.90   4055.40    219.80   20%2 o
   3 -12   6     72.55    159.50     64.00   20%2 <
   2  -9   6   2821.30   2521.10    171.30   20%2 o
   1  -6   6   2554.10   5009.90    226.70   20%2 o
   2 -10   8    432.66    612.00     89.80   20%2 o
   1  -7   8   1109.50   1548.20    139.90   20%2 o
   3   0 -17    395.65    732.80    116.00   21%2 o
   2   3 -17     14.19     29.90     75.20   21%2 <
   2   2 -15    176.91    443.20     98.80   21%2 o
   1   5 -15    155.88     46.70     89.40   21%2 <
   0   8 -14    109.47    254.20     80.40   21%2 o
   1   4 -13     58.68    149.40    110.30   21%2 <
  -1  10 -12     13.31    -38.80     58.60   21%2 <
   0   6 -11     56.59    410.30     97.30   21%2 o
   4  -7 -10   2463.50   2863.50    201.00   21%2 o
   0   5  -9   3077.80   3064.10    209.40   21%2 o
   4  -8  -8   3778.60   4462.50    220.70   21%2 o
  -2  11  -8    301.26    164.60     79.50   21%2 <
  -1   7  -7   1191.90   1140.00    146.40   21%2 o
  -2  10  -6    118.35    207.90     98.00   21%2 <
  -1   6  -5    167.38    609.00    171.10   21%2 o
  -3  11  -2    231.93    273.50     92.60   21%2 <
  -2   7  -1  13502.00  15571.10    346.20   21%2 o
  -2   6   1  13884.00  18506.10    391.30   21%2 o
   0  -2   4  22132.00  19342.20    459.60   21%2 o
  -4  11   4    223.23    135.30     96.60   21%2 <
  -3   7   5   5199.60   5923.80    265.20   21%2 o
   0  -3   6  12610.00  12876.00    371.90   21%2 o
  -4  10   6    428.25    414.10    121.50   21%2 o
  -3   6   7  12839.00  13261.90    369.20   21%2 o
   0  -4   8   1585.90   2110.60    175.00   21%2 o
  -4   9   8   1249.10   1365.90    136.00   21%2 o
   1  -8  10    114.94    162.30     97.70   21%2 <
   0  -5  10    106.40     30.30    125.10   21%2 <
   1  -9  12     48.24    117.00     69.30   21%2 <
   0  -6  12     19.57    137.60    103.90   21%2 <
   0  -7  14     10.43     64.80     63.30   21%2 <
  -2  -1  15    145.84    591.70    111.10   21%2 o
  -2  -2  17      9.13    109.00     74.60   21%2 <
   0   7 -13     95.67    184.50     71.70   21%2 <
  -1   9 -11     31.23    174.90     68.50   21%2 <
  -1   8  -9     33.00     96.40     88.60   21%2 <
   4  -9  -6   3150.10   2274.50    167.90   21%2 o
  -2   9  -5  13615.00  11259.80    321.30   21%2 o
   4 -10  -4    350.71    634.00    113.40   21%2 o
  -3  12  -4    579.12    638.30     82.90   21%2 o
  -2   8  -3    610.17   1246.40    157.50   21%2 o
   4 -11  -2    797.48   1090.20    117.10   21%2 o
   3  -8  -2    335.84    731.20    178.90   21%2 o
   4 -12   0     76.18    412.00     88.20   21%2 o
   3  -9   0   1111.20    937.30    160.50   21%2 o
  -3   9   1    838.35    971.90    138.70   21%2 o
   3 -10   2    663.90    662.80    124.30   21%2 o
   2  -7   2  14264.00  12383.40    325.60   21%2 o
  -4  12   2    573.27    574.90     89.60   21%2 o
  -3   8   3    587.11   1665.00    152.70   21%2 o
   3 -11   4    145.63    328.00    104.00   21%2 o
   2  -8   4   2989.40   4055.40    219.80   21%2 o
   1  -5   4  43235.00  33198.30    516.20   21%2 o
   3 -12   6     67.86    159.50     64.00   21%2 <
   2  -9   6   2482.60   2521.10    171.30   21%2 o
   1  -6   6   2408.00   5009.90    226.70   21%2 o
   2 -10   8    391.22    612.00     89.80   21%2 o
   1  -7   8    950.87   1548.20    139.90   21%2 o
   0  -7  15    362.81    158.30     70.50   21%2 <
  -1  -4  15    434.68    404.80     82.50   21%2 o
   2   1 -14   1636.40   2055.10    177.60   22%2 o
   2   0 -12   2581.00   5425.00    271.20   22%2 o
  -1   9 -11     34.18    174.90     68.50   22%2 <
   2  -1 -10  19251.00  29968.70    535.80   22%2 o
   1   2 -10   2014.20   4357.30    266.20   22%2 o
   4  -8  -8   3531.20   4462.50    220.70   22%2 o
   3  -5  -8   5213.30   7061.30    346.90   22%2 o
   1   1  -8   4422.10   8796.00    341.40   22%2 o
  -2  10  -7   1821.60   3148.90    170.00   22%2 o
   4  -9  -6   3464.80   2274.50    167.90   22%2 o
   3  -6  -6   6465.70   6889.50    287.00   22%2 o
   0   3  -6   9928.60  11227.60    357.00   22%2 o
  -2   9  -5  14162.00  11259.80    321.30   22%2 o
   4 -10  -4    386.97    634.00    113.40   22%2 o
   3  -7  -4   2791.80   3919.20    232.60   22%2 o
   2  -4  -4    665.96   2186.00    315.60   22%2 o
   0   2  -4  16293.00  22591.70    503.20   22%2 o
   3  -8  -2    346.47    731.20    178.90   22%2 o
   2  -5  -2   6425.80  10727.80    364.80   22%2 o
  -3  10  -1    787.57    795.20    113.10   22%2 o
   3  -9   0   1085.70    937.30    160.50   22%2 o
   2  -6   0  25164.00  21348.80    437.00   22%2 o
   1  -3   0 181620.00 108947.00    982.90   22%2 o
  -3   9   1    808.07    971.90    138.70   22%2 o
   2  -7   2  13466.00  12383.40    325.60   22%2 o
   1  -4   2  16897.00  18054.70    430.80   22%2 o
  -3   8   3    525.92   1665.00    152.70   22%2 o
   1  -5   4  41123.00  33198.30    516.20   22%2 o
  -3   7   5   4571.30   5923.80    265.20   22%2 o
  -3   6   7  12038.00  13261.90    369.20   22%2 o
   1  -9  13    292.01    247.50     78.30   22%2 o
   0  -6  13    127.23     44.30     77.10   22%2 <
  -1  -3  13    718.43    933.50    134.20   22%2 o
   0  -7  15    374.78    158.30     70.50   22%2 <
  -1  -4  15    412.68    404.80     82.50   22%2 o
   1   4 -14    782.59   1336.90    136.20   22%2 o
   1   3 -12   4213.90   5249.50    240.80   22%2 o
   0   6 -12   1310.40   1478.20    145.70   22%2 o
   0   5 -10    440.64   1190.60    173.60   22%2 o
  -2  11  -9    165.16    512.40     78.50   22%2 o
   0   4  -8   2285.30   2471.20    186.20   22%2 o
  -1   7  -8   2171.30   2632.90    194.30   22%2 o
  -1   6  -6   2325.00   4113.40    224.10   22%2 o
  -3  12  -5   1111.50   1000.40    116.70   22%2 o
  -1   5  -4  38181.00  32771.60    519.30   22%2 o
  -3  11  -3   2987.10   3165.40    169.40   22%2 o
  -1   4  -2  16395.00  23092.50    463.80   22%2 o
   4 -12   1     21.46    -64.00     74.80   22%2 <
  -4  12   1    767.06   1043.10    103.20   22%2 o
  -4  11   3    707.16    945.50    119.30   22%2 o
   3 -11   5     90.72    -26.00     82.30   22%2 <
  -4  10   5   5935.90   5051.70    211.40   22%2 o
   2  -9   7   1561.20   1663.10    141.80   22%2 o
  -4   9   7    615.52   1936.00    153.60   22%2 o
   2 -10   9    498.25    404.90     95.90   22%2 o
   1  -7   9    796.79   1056.50    138.10   22%2 o
   1  -8  11    303.11    335.20     97.10   22%2 o
   0  -5  11     72.25    275.20    117.00   22%2 <
  -1  -2  11   1583.80   1848.80    187.30   22%2 o
  -1   8 -10     86.27     65.80     90.60   22%2 <
   4 -11  -1     73.64    145.30     79.20   22%2 <
   3 -10   3    203.96    328.30    100.30   22%2 o
   3  -1 -16    789.40    682.40    140.50   23%2 o
   2   2 -16    100.85    144.20    102.10   23%2 <
   1   5 -16     81.68     42.40     82.00   23%2 <
   3  -2 -14    907.92   1420.50    194.40   23%2 o
   2   1 -14   2781.10   2055.10    177.60   23%2 o
   1   4 -14    812.77   1336.90    136.20   23%2 o
   2   0 -12   3000.20   5425.00    271.20   23%2 o
   1   3 -12   7754.10   5249.50    240.80   23%2 o
   0   6 -12    894.39   1478.20    145.70   23%2 o
   0   5 -10    472.54   1190.60    173.60   23%2 o
   0   4  -8   2550.80   2471.20    186.20   23%2 o
  -1   7  -8   2325.30   2632.90    194.30   23%2 o
  -1   6  -6   2931.00   4113.40    224.10   23%2 o
   2  -4  -4    699.29   2186.00    315.60   23%2 o
  -1   5  -4  44439.00  32771.60    519.30   23%2 o
  -1   4  -2  17643.00  23092.50    463.80   23%2 o
   4 -12   1     47.90    -64.00     74.80   23%2 <
  -4  12   1   1040.70   1043.10    103.20   23%2 o
  -4  11   3   1257.00    945.50    119.30   23%2 o
   3 -11   5    114.47    -26.00     82.30   23%2 <
  -4  10   5   5185.20   5051.70    211.40   23%2 o
   2  -9   7   1648.40   1663.10    141.80   23%2 o
  -4   9   7    814.36   1936.00    153.60   23%2 o
   1  -7   9   1022.50   1056.50    138.10   23%2 o
   0  -4   9    507.68      7.20    152.20   23%2 <
  -4   8   9    690.67   2657.10    185.20   23%2 o
   0  -5  11     83.17    275.20    117.00   23%2 <
  -1  -2  11   1944.10   1848.80    187.30   23%2 o
  -2   1  11   1632.70   2372.70    290.30   23%2 o
  -1  -4  16     98.32    109.70     81.40   23%2 <
  -2  -1  16     34.15    129.30    109.30   23%2 <
   0   7 -14    867.53    675.40     96.90   23%2 o
  -1   9 -12    210.85    294.60     78.00   23%2 o
  -1   8 -10    119.79     65.80     90.60   23%2 <
  -2  10  -8    182.21    260.70     90.80   23%2 <
  -2   9  -6   2235.50   2408.70    169.70   23%2 o
   4  -9  -5   3965.50   4791.80    219.40   23%2 o
  -2   8  -4   2357.50   4734.30    229.00   23%2 o
  -3  11  -4    142.88    291.40     96.30   23%2 o
   4 -10  -3   1110.80   1269.10    128.50   23%2 o
  -2   7  -2  10136.00   9584.20    290.80   23%2 o
  -3  10  -2    304.44    523.40    115.60   23%2 o
   4 -11  -1     91.31    145.30     79.20   23%2 <
  -2   6   0  42914.00  38142.00    521.90   23%2 o
  -3   9   0   1640.90   2057.10    185.40   23%2 o
   3  -9   1    466.58    694.10    133.10   23%2 o
  -2   5   2  20575.00  22753.60    444.30   23%2 o
   3 -10   3    258.23    328.30    100.30   23%2 o
   2  -7   3    123.52    -23.00    167.60   23%2 <
   2  -8   5    287.66    653.10    145.60   23%2 o
   1  -6   7   3080.70   2679.70    179.70   23%2 o
   2 -10  10    369.40    293.70     87.10   23%2 o
   1  -8  12      5.68     99.50     71.60   23%2 <
   0  -6  14     35.00    131.20     71.00   23%2 <
   3 -11   6     25.48     75.10     57.10   23%2 <
   3  -1 -16    575.86    682.40    140.50   24%2 o
   2   2 -16    230.09    144.20    102.10   24%2 <
   1   5 -16     40.33     42.40     82.00   24%2 <
   3  -2 -14    314.21   1420.50    194.40   24%2 o
   0   7 -14    593.46    675.40     96.90   24%2 o
  -1   9 -12    120.58    294.60     78.00   24%2 o
  -1   8 -10     79.51     65.80     90.60   24%2 <
  -2  10  -8    168.32    260.70     90.80   24%2 <
  -2   9  -6   2865.60   2408.70    169.70   24%2 o
   4  -9  -5   4713.70   4791.80    219.40   24%2 o
  -2   8  -4   2090.30   4734.30    229.00   24%2 o
  -3  11  -4    157.08    291.40     96.30   24%2 o
   4 -10  -3   1368.50   1269.10    128.50   24%2 o
  -2   7  -2   9845.90   9584.20    290.80   24%2 o
  -3  10  -2    431.59    523.40    115.60   24%2 o
   4 -11  -1     75.21    145.30     79.20   24%2 <
  -2   6   0  43125.00  38142.00    521.90   24%2 o
  -3   9   0   1533.80   2057.10    185.40   24%2 o
   3  -9   1    411.71    694.10    133.10   24%2 o
  -2   5   2  24075.00  22753.60    444.30   24%2 o
  -3   8   2   2773.20   3149.40    202.00   24%2 o
   3 -10   3    221.93    328.30    100.30   24%2 o
   2  -7   3    153.13    -23.00    167.60   24%2 <
   2  -8   5    465.88    653.10    145.60   24%2 o
   1  -6   7   3150.30   2679.70    179.70   24%2 o
   0  -3   7   5726.70   7772.50    306.90   24%2 o
   0  -4   9    180.26      7.20    152.20   24%2 <
  -1  -1   9   1658.40   1047.50    226.20   24%2 o
  -4   8   9   1158.70   2657.10    185.20   24%2 o
   2 -10  10    388.71    293.70     87.10   24%2 o
  -4   7  11   5588.90   3880.20    199.50   24%2 o
   1  -8  12     11.43     99.50     71.60   24%2 <
   0  -6  14     57.16    131.20     71.00   24%2 <
  -1  -3  14   2469.00   2869.20    178.00   24%2 o
  -1  -4  16    185.82    109.70     81.40   24%2 <
  -2  -1  16     26.50    129.30    109.30   24%2 <
   4  -8  -7   4798.50   5000.70    226.10   24%2 o
   3  -8  -1   1819.90    785.20    161.10   24%2 o
   4 -11   0     69.25     56.80     78.20   24%2 <
  -4  12   0    291.23    328.40     81.70   24%2 o
   4 -12   2    154.52    241.10     82.10   24%2 <
  -4  11   2   1351.40   1323.80    120.80   24%2 o
   3 -10   4   1762.30   1613.60    143.80   24%2 o
  -3   7   4   1527.30   2300.40    182.50   24%2 o
  -4  10   4    331.56    444.80    104.60   24%2 o
   1  -5   5   1515.70   1544.80    181.90   24%2 o
   3 -11   6     18.49     75.10     57.10   24%2 <
   2  -9   8   1421.00   1220.20    136.10   24%2 o
   1  -7  10   1351.00   1594.30    141.40   24%2 o
   0  -5  12    218.59    291.10    121.10   24%2 <
   3  -1 -16    388.79    682.40    140.50   25%2 o
   4  -8  -7   4984.10   5000.70    226.10   25%2 o
   4  -9  -5   4822.50   4791.80    219.40   25%2 o
   3  -7  -3    152.73    533.10    160.10   25%2 o
   3  -8  -1   1738.50    785.20    161.10   25%2 o
   4 -11   0     68.10     56.80     78.20   25%2 <
  -4  12   0    261.85    328.40     81.70   25%2 o
   2  -6   1  20255.00  20805.40    435.50   25%2 o
   4 -12   2    152.86    241.10     82.10   25%2 <
  -2   5   2  22964.00  22753.60    444.30   25%2 o
  -3   8   2   2811.80   3149.40    202.00   25%2 o
  -4  11   2   1310.00   1323.80    120.80   25%2 o
   2  -7   3    177.26    -23.00    167.60   25%2 <
   3 -10   4   1579.40   1613.60    143.80   25%2 o
  -2   4   4    660.82   2324.30    301.90   25%2 o
  -3   7   4   1644.10   2300.40    182.50   25%2 o
  -4  10   4    260.06    444.80    104.60   25%2 o
   1  -5   5   1475.90   1544.80    181.90   25%2 o
   3 -11   6     17.24     75.10     57.10   25%2 <
   0  -3   7   5570.30   7772.50    306.90   25%2 o
   2  -9   8   1338.50   1220.20    136.10   25%2 o
  -1  -1   9   1568.00   1047.50    226.20   25%2 o
   1  -7  10   1483.20   1594.30    141.40   25%2 o
  -4   7  11   4764.70   3880.20    199.50   25%2 o
   0  -5  12    213.99    291.10    121.10   25%2 <
  -1  -3  14   2298.30   2869.20    178.00   25%2 o
  -2  -1  16     33.22    129.30    109.30   25%2 <
  -3   2  16   2601.50   2353.90    192.40   25%2 o
   1   4 -15     31.69     58.40     68.30   25%2 <
   0   7 -15    148.28    153.00     63.60   25%2 <
   0   6 -13    211.02    274.00     78.70   25%2 o
  -1   9 -13    310.33    351.30     75.40   25%2 o
   0   5 -11    153.90    191.10    105.70   25%2 <
  -1   8 -11    192.72    355.90     83.40   25%2 o
   0   4  -9     41.27    183.20    113.90   25%2 <
  -1   7  -9   1063.00   1330.20    138.40   25%2 o
  -2  10  -9    328.14    336.60     79.00   25%2 o
  -1   6  -7   3906.10   3437.80    190.90   25%2 o
  -2   9  -7   1635.90   1452.10    136.80   25%2 o
   5 -11  -6    821.68    595.30     87.90   25%2 o
  -2   8  -5    278.75    471.20    130.60   25%2 o
  -3  11  -5     88.67    183.70     82.00   25%2 <
  -3  10  -3    264.80    253.20     96.60   25%2 <
   4 -10  -2    666.16    711.50    108.90   25%2 o
   3  -9   2    279.96    778.40    142.60   25%2 o
   4 -12   3    406.66    296.00     82.40   25%2 o
   1  -4   3  50444.00  46712.20    621.20   25%2 o
   2  -8   6    480.33    708.50    149.30   25%2 o
  -4   9   6     62.14    279.80    107.60   25%2 <
   3 -11   7    339.65    108.10     94.20   25%2 <
   1  -6   8   5512.30   5951.20    243.30   25%2 o
   2 -10  11    300.36    156.10     55.80   25%2 <
   1  -8  13    107.46    170.90     82.30   25%2 <
   0  -6  15     51.85     63.40     75.00   25%2 <
   2   2 -17    347.15    426.80    100.50   26%2 o
   2   1 -15    272.15    824.10    121.00   26%2 o
   1   4 -15     34.70     58.40     68.30   26%2 <
   1   3 -13    737.98   1471.30    147.20   26%2 o
   1   2 -11   1920.90   2491.90    218.80   26%2 o
   0   5 -11    200.35    191.10    105.70   26%2 <
   4  -7  -9    225.41    331.30    145.50   26%2 <
   0   4  -9     62.29    183.20    113.90   26%2 <
   5 -10  -8    248.52     -9.20     89.30   26%2 <
   0   3  -7   9870.90  12922.90    341.90   26%2 o
  -1   6  -7   3189.10   3437.80    190.90   26%2 o
   5 -11  -6    789.66    595.30     87.90   26%2 o
   3  -6  -5   1099.60   1387.60    203.30   26%2 o
  -1   5  -5   1477.80   1629.10    215.90   26%2 o
  -2   8  -5    297.37    471.20    130.60   26%2 o
  -3  11  -5    114.13    183.70     82.00   26%2 <
  -2   7  -3    187.22    172.30    129.80   26%2 <
  -3  10  -3    319.98    253.20     96.60   26%2 <
   4 -10  -2    981.80    711.50    108.90   26%2 o
   2  -5  -1   6252.70   6218.50    297.30   26%2 o
  -3   9  -1    241.83    378.60    142.00   26%2 <
  -4  12  -1     41.31     16.10     66.40   26%2 <
   3  -9   2    505.51    778.40    142.60   26%2 o
   4 -12   3    402.29    296.00     82.40   26%2 o
   1  -4   3  52950.00  46712.20    621.20   26%2 o
  -2   4   4   2547.00   2324.30    301.90   26%2 o
   0  -2   5   2937.10   3173.30    324.20   26%2 o
  -3   6   6    650.14   1370.00    205.80   26%2 o
  -4   9   6     65.15    279.80    107.60   26%2 <
   3 -11   7    347.67    108.10     94.20   26%2 <
   1  -6   8   5715.70   5951.20    243.30   26%2 o
  -4   8   8   5314.60   5855.80    246.40   26%2 o
   2  -9   9     90.51     89.00     87.00   26%2 <
   0  -4  10    698.03   1579.40    184.00   26%2 o
  -1  -2  12   1809.10   1339.30    183.80   26%2 o
  -2   0  14   6821.00   8708.30    285.10   26%2 o
   0  -6  15     82.66     63.40     75.00   26%2 <
  -2  -1  17    160.77    385.70    101.90   26%2 o
  -1   8 -12     61.27    111.80     62.70   26%2 <
  -2  10 -10    471.00    319.50     77.60   26%2 o
  -2   9  -8   2115.80   2590.40    151.30   26%2 o
  -3  11  -6    105.61    149.30     76.40   26%2 <
   4  -9  -4   1789.70    960.50    127.60   26%2 o
  -1   4  -3  53144.00  49987.90    638.30   26%2 o
  -2   6  -1  21497.00  21510.40    408.60   26%2 o
   3  -8   0    203.64    153.00    133.60   26%2 <
   4 -11   1    154.94     70.30     80.60   26%2 <
  -3   8   1   2083.70   2550.10    174.50   26%2 o
  -4  11   1    116.74    210.20     75.50   26%2 <
  -4  10   3    669.06    714.10    119.20   26%2 o
   2  -7   4   8528.20   8441.50    282.60   26%2 o
   3 -10   5   6679.00   4731.40    196.10   26%2 o
   1  -5   6   1352.40   1793.20    203.50   26%2 o
   2  -8   7    225.41    500.80    126.00   26%2 o
   3 -11   8    112.63    112.50     83.00   26%2 <
   1  -7  11   1303.20   1459.30    137.10   26%2 o
   0  -5  13    273.80    292.00     98.80   26%2 <
   1  -8  14    624.13    323.70     81.80   26%2 o
  -1  -3  15    732.36   1038.00    128.90   26%2 o
   0   6 -14    148.35    223.40     75.30   26%2 <
  -1   7 -10   1794.30   1754.60    135.80   26%2 o
   4 -12   4     12.93     66.40     47.60   26%2 <
   2   2 -17    181.89    426.80    100.50   27%2 o
   2   1 -15    588.61    824.10    121.00   27%2 o
  -1   8 -12     38.24    111.80     62.70   27%2 <
   1   2 -11   1905.30   2491.90    218.80   27%2 o
   5  -9 -10     37.22    -24.10    103.20   27%2 <
  -2  10 -10    464.07    319.50     77.60   27%2 o
   1   1  -9    324.34    881.70    184.90   27%2 o
  -2   9  -8   2131.20   2590.40    151.30   27%2 o
  -3  11  -6     45.35    149.30     76.40   27%2 <
   5 -11  -5     18.91     48.50     87.30   27%2 <
   3  -6  -5   1705.20   1387.60    203.30   27%2 o
   4  -9  -4   1761.60    960.50    127.60   27%2 o
  -1   4  -3  53308.00  49987.90    638.30   27%2 o
   2  -5  -1   6027.70   6218.50    297.30   27%2 o
  -2   6  -1  20685.00  21510.40    408.60   27%2 o
   3  -8   0    216.93    153.00    133.60   27%2 <
   4 -11   1    170.58     70.30     80.60   27%2 <
  -3   8   1   2006.90   2550.10    174.50   27%2 o
  -4  10   3    567.37    714.10    119.20   27%2 o
   0  -2   5   2628.00   3173.30    324.20   27%2 o
   1  -5   6   1290.10   1793.20    203.50   27%2 o
   2  -8   7    141.59    500.80    126.00   27%2 o
  -1   0   7 184280.00 140493.00   1078.10   27%2 o
   3 -11   8     41.89    112.50     83.00   27%2 <
  -4   8   8   5419.40   5855.80    246.40   27%2 o
   0  -5  13    315.76    292.00     98.80   27%2 <
   1  -8  14    502.05    323.70     81.80   27%2 o
  -1  -3  15    851.16   1038.00    128.90   27%2 o
  -2  -1  17    252.50    385.70    101.90   27%2 o
   1   4 -16    105.76     18.00     76.10   27%2 <
   0   6 -14    116.45    223.40     75.30   27%2 <
   0   5 -12    362.76    204.50     93.70   27%2 <
  -1   7 -10   1735.90   1754.60    135.80   27%2 o
  -1   6  -8   5879.00   6287.40    241.90   27%2 o
   4  -8  -6   1668.00   3118.60    210.00   27%2 o
  -2   8  -6    492.04    647.90    136.50   27%2 o
   0   2  -5   2084.10   2602.70    276.90   27%2 o
  -2   7  -4   8722.40  11207.00    323.20   27%2 o
  -3  10  -4   1248.40   1219.70    130.20   27%2 o
   5 -12  -2    305.67    297.40     95.30   27%2 o
   3  -7  -2   1102.20    441.40    163.70   27%2 <
  -3   9  -2    976.61   1195.40    159.10   27%2 o
  -4  12  -2     14.77     61.80     60.30   27%2 <
   4 -10  -1    166.11     23.20     80.50   27%2 <
  -4  11   0     58.69    213.40     88.20   27%2 <
  -2   5   1   5355.70   6847.60    297.80   27%2 o
   4 -11   2    127.26     72.90     95.40   27%2 <
   2  -6   2   2804.50   4513.80    277.50   27%2 o
   3  -9   3   1663.10   1866.50    168.70   27%2 o
  -3   7   3    992.61   1536.00    178.50   27%2 o
   4 -12   4      7.93     66.40     47.60   27%2 <
  -4   9   5   3568.90   3903.80    198.50   27%2 o
   3 -10   6    129.79    237.00     91.00   27%2 <
   0  -3   8  10927.00  14805.60    370.50   27%2 o
   1  -6   9   6856.40   6139.00    255.30   27%2 o
   2  -9  10    954.23    708.70    109.90   27%2 o
   0  -4  11   6164.20   5349.60    239.90   27%2 o
   1  -7  12    223.59    434.30    101.70   27%2 o
  -2  10 -11    130.90    229.60     73.50   27%2 o
   1   4 -16    117.13     18.00     76.10   28%2 <
   1   3 -14    507.53    483.10    129.20   28%2 o
   0   6 -14    112.22    223.40     75.30   28%2 <
   0   5 -12    358.79    204.50     93.70   28%2 <
   4  -6 -11   3197.20   1780.10    188.90   28%2 o
   5  -9 -10     25.09    -24.10    103.20   28%2 <
   0   4 -10     86.11    128.90    154.70   28%2 <
  -1   7 -10   1721.60   1754.60    135.80   28%2 o
   1   1  -9    310.73    881.70    184.90   28%2 o
  -1   6  -8   5672.40   6287.40    241.90   28%2 o
   4  -8  -6   1966.90   3118.60    210.00   28%2 o
  -2   8  -6    501.05    647.90    136.50   28%2 o
   5 -11  -5     17.13     48.50     87.30   28%2 <
   0   2  -5   1970.30   2602.70    276.90   28%2 o
  -2   7  -4   8749.20  11207.00    323.20   28%2 o
  -3  10  -4   1306.00   1219.70    130.20   28%2 o
   5 -12  -2    323.26    297.40     95.30   28%2 o
   3  -7  -2   1107.70    441.40    163.70   28%2 <
  -3   9  -2    959.28   1195.40    159.10   28%2 o
  -4  12  -2     13.39     61.80     60.30   28%2 <
   4 -10  -1    159.29     23.20     80.50   28%2 <
  -4  11   0     61.62    213.40     88.20   28%2 <
  -2   5   1   5222.30   6847.60    297.80   28%2 o
   4 -11   2    123.02     72.90     95.40   28%2 <
   2  -6   2   3032.80   4513.80    277.50   28%2 o
   3  -9   3   1732.40   1866.50    168.70   28%2 o
  -3   7   3   1418.70   1536.00    178.50   28%2 o
  -4   9   5   3544.80   3903.80    198.50   28%2 o
   3 -10   6     98.70    237.00     91.00   28%2 <
  -1   0   7 175590.00 140493.00   1078.10   28%2 o
   0  -3   8  13286.00  14805.60    370.50   28%2 o
   1  -6   9   7047.00   6139.00    255.30   28%2 o
   2  -9  10    878.65    708.70    109.90   28%2 o
  -1  -1  10  14681.00  14031.50    367.30   28%2 o
   0  -4  11   5993.30   5349.60    239.90   28%2 o
   1  -7  12    189.76    434.30    101.70   28%2 o
  -1  -2  13   5304.50   4813.60    243.20   28%2 o
  -4   6  13    229.00    649.40    165.90   28%2 o
   0  -5  14   3327.20   3147.90    178.90   28%2 o
  -1   8 -13      9.50    -15.00     62.30   28%2 <
  -2  10 -11    101.26    229.60     73.50   28%2 o
  -2   9  -9     85.19    150.90     82.40   28%2 <
   5 -10  -7     42.56     30.10     78.90   28%2 <
  -3  11  -7    307.00    392.50     87.10   28%2 o
  -1   5  -6   1257.50   1930.80    193.00   28%2 o
  -3  10  -5   5003.80   5514.60    209.60   28%2 o
   4  -9  -3    293.31    508.40    127.90   28%2 o
  -4  12  -3    393.41    473.70     85.00   28%2 o
  -3   8   0   1132.70   2487.50    190.40   28%2 o
   3  -8   1     56.63    150.60    157.70   28%2 <
  -4  10   2    271.55    650.30    108.40   28%2 o
   2  -7   5    287.69    395.90    141.80   28%2 <
   2  -8   8     89.29   -171.80    101.40   28%2 <
   2  -9  11     60.01    137.60     75.90   28%2 <
  -1  -3  16    292.37    405.90    101.80   28%2 o
   1   4 -16     84.80     18.00     76.10   29%2 <
   0   6 -15    388.27    269.10     91.00   29%2 <
   1   3 -14    522.27    483.10    129.20   29%2 o
  -1   8 -13      8.52    -15.00     62.30   29%2 <
   0   5 -12    372.44    204.50     93.70   29%2 <
   4  -6 -11   1975.10   1780.10    188.90   29%2 o
  -1   7 -11     46.12    562.50    108.30   29%2 o
  -2  10 -11    111.40    229.60     73.50   29%2 o
   0   4 -10     80.79    128.90    154.70   29%2 <
   1   1  -9    364.35    881.70    184.90   29%2 o
  -2   9  -9     98.85    150.90     82.40   29%2 <
  -1   6  -8   5261.30   6287.40    241.90   29%2 o
   5 -10  -7     41.29     30.10     78.90   29%2 <
   3  -5  -7   3312.20   3089.20    270.80   29%2 o
  -3  11  -7    341.08    392.50     87.10   29%2 o
   4  -8  -6   2603.10   3118.60    210.00   29%2 o
  -1   5  -6   1260.50   1930.80    193.00   29%2 o
   0   2  -5   1671.80   2602.70    276.90   29%2 o
  -3  10  -5   5166.10   5514.60    209.60   29%2 o
   5 -11  -4    578.35    632.70    106.50   29%2 o
  -2   7  -4   8760.40  11207.00    323.20   29%2 o
   4  -9  -3    285.11    508.40    127.90   29%2 o
   2  -4  -3   3307.90   1980.20    315.60   29%2 o
  -4  12  -3    467.43    473.70     85.00   29%2 o
   5 -12  -2    342.82    297.40     95.30   29%2 o
   3  -7  -2   1197.60    441.40    163.70   29%2 <
  -2   6  -2   2456.80   4210.00    260.30   29%2 o
  -3   9  -2    765.54   1195.40    159.10   29%2 o
  -3   8   0   1490.10   2487.50    190.40   29%2 o
  -4  11   0     78.73    213.40     88.20   29%2 <
   3  -8   1     51.47    150.60    157.70   29%2 <
  -2   5   1   5205.90   6847.60    297.80   29%2 o
   4 -11   2     86.80     72.90     95.40   29%2 <
   2  -6   2   3859.30   4513.80    277.50   29%2 o
  -4  10   2    242.66    650.30    108.40   29%2 o
  -3   7   3   2550.90   1536.00    178.50   29%2 o
   3  -9   4   4209.50   6482.80    248.80   29%2 o
   1  -4   4   3789.40   4115.50    299.40   29%2 o
   2  -7   5    305.65    395.90    141.80   29%2 <
  -4   9   5   3838.70   3903.80    198.50   29%2 o
   3 -10   6     63.78    237.00     91.00   29%2 <
   2  -8   8     90.68   -171.80    101.40   29%2 <
   0  -3   8  24015.00  14805.60    370.50   29%2 o
  -3   5   8   2631.90   4422.40    307.30   29%2 o
   1  -6   9   8081.00   6139.00    255.30   29%2 o
  -1  -1  10  14363.00  14031.50    367.30   29%2 o
  -4   7  10   1725.90   1916.00    173.90   29%2 o
   2  -9  11     62.22    137.60     75.90   29%2 <
   0  -4  11   5712.50   5349.60    239.90   29%2 o
   1  -7  12    226.63    434.30    101.70   29%2 o
  -1  -2  13   4943.40   4813.60    243.20   29%2 o
   0  -5  14   3015.10   3147.90    178.90   29%2 o
  -1  -3  16    271.01    405.90    101.80   29%2 o
  -2   8  -7     69.17    160.70    108.60   29%2 <
   4 -10   0    791.55    537.80    104.80   29%2 o
   4 -11   3     82.48    158.00     77.50   29%2 <
   3 -10   7    394.81    337.80     98.20   29%2 o
   1  -5   7    743.00    383.80    138.80   29%2 <
   1  -6  10    252.95    588.90    123.00   29%2 o
   1  -7  13    472.04    407.20     88.50   29%2 o
   2   1 -16    146.82    189.10     93.00   30%2 <
   0   6 -15     74.99    269.10     91.00   30%2 <
   0   5 -13   1986.20   1267.80    130.80   30%2 o
   1   2 -12   1762.90   1271.60    195.50   30%2 o
   4  -6 -11    237.24   1780.10    188.90   30%2 o
  -1   7 -11    391.64    562.50    108.30   30%2 o
  -1   6  -9   9358.70   8570.20    288.00   30%2 o
   0   3  -8   5749.00   5943.40    274.60   30%2 o
   5 -10  -7    147.47     30.10     78.90   30%2 <
   3  -5  -7   2903.60   3089.20    270.80   30%2 o
  -2   8  -7    128.62    160.70    108.60   30%2 <
  -1   5  -6   1301.10   1930.80    193.00   30%2 o
  -3  10  -5   5522.50   5514.60    209.60   30%2 o
   5 -11  -4    811.68    632.70    106.50   30%2 o
   4  -9  -3   1974.70    508.40    127.90   30%2 o
   2  -4  -3    925.66   1980.20    315.60   30%2 o
  -3   9  -3   4601.10   4031.30    198.20   30%2 o
  -4  12  -3    499.57    473.70     85.00   30%2 o
  -2   6  -2   2729.00   4210.00    260.30   30%2 o
   5 -12  -1     29.83    -73.60     65.50   30%2 <
  -4  11  -1    149.23    174.50     68.50   30%2 <
   4 -10   0    767.85    537.80    104.80   30%2 o
   2  -5   0   2802.40   1822.40    237.80   30%2 o
  -3   8   0   2558.80   2487.50    190.40   30%2 o
   3  -8   1     50.13    150.60    157.70   30%2 <
  -4  10   2    696.69    650.30    108.40   30%2 o
   4 -11   3     40.73    158.00     77.50   30%2 <
   3  -9   4   3664.50   6482.80    248.80   30%2 o
   1  -4   4   6506.30   4115.50    299.40   30%2 o
  -4   9   4    630.62    857.60    127.20   30%2 o
  -3   6   5   2799.90   2057.10    226.80   30%2 o
  -5  11   6    344.71    188.90     91.90   30%2 <
   3 -10   7    263.01    337.80     98.20   30%2 o
   1  -5   7    919.01    383.80    138.80   30%2 <
  -4   8   7   3285.70   3977.20    212.00   30%2 o
  -3   5   8   4459.00   4422.40    307.30   30%2 o
   1  -6  10    318.03    588.90    123.00   30%2 o
  -4   7  10    939.93   1916.00    173.90   30%2 o
   2  -9  12     26.11     81.70     65.70   30%2 <
   0  -4  12    805.79    900.60    144.10   30%2 o
  -2   1  12   3123.10   2715.90    241.10   30%2 o
   1  -7  13    596.98    407.20     88.50   30%2 o
   0  -5  15     96.51     98.90     89.70   30%2 <
  -1   8 -14    154.64     12.40     65.50   30%2 <
  -2   9 -10    379.91    307.10     88.50   30%2 o
  -3  10  -6     49.69    358.70     84.80   30%2 o
  -2   7  -5    653.95    516.90    139.90   30%2 o
  -1   4  -4   4098.70   4742.10    261.00   30%2 o
  -4  12  -4     20.61     21.50     64.70   30%2 <
   2  -6   3   7092.90   6688.50    259.00   30%2 o
   2  -7   6   1581.00   2389.90    183.80   30%2 o
   3 -10   8   1897.70   1169.80    124.30   30%2 o
   2  -8   9     72.45    118.30     91.30   30%2 <
   0  -3   9   1561.60   1365.50    153.60   30%2 o
   1  -7  14    166.51    194.70     76.50   30%2 <
  -1  -3  17    438.69    460.90     77.70   30%2 o
   3  -2 -15    914.22   2438.10    197.50   31%2 o
   1   3 -15   1894.80   1563.10    127.40   31%2 o
   2   0 -14   7322.50   7420.50    271.00   31%2 o
  -1   7 -12    897.41    581.90    101.30   31%2 o
   0   4 -11    153.06    471.20    133.10   31%2 o
   1   1 -10  16195.00  21524.90    439.20   31%2 o
   5  -9  -9    184.98    228.60    101.00   31%2 <
   5 -10  -6   1484.80    839.20    117.50   31%2 o
   4  -8  -5   2090.20   1666.40    169.20   31%2 o
   3  -6  -4   3908.40   5732.40    257.20   31%2 o
   4  -9  -2    583.31    524.60    129.10   31%2 o
   3  -7  -1   1147.00    847.60    140.20   31%2 o
  -4  10   1    240.02    222.90     77.90   31%2 <
   3  -8   2     90.15     21.70    130.70   31%2 <
  -3   7   2    823.88    423.30    123.90   31%2 o
   0  -1   3  80040.00  69314.70    831.60   31%2 o
  -2   4   3   7791.20   6433.60    359.50   31%2 o
   3  -9   5    153.23    439.50    112.80   31%2 o
   0  -2   6   2417.60   2728.40    273.90   31%2 o
   0  -3   9   1263.40   1365.50    153.60   31%2 o
   1  -6  11     41.24    119.10     93.30   31%2 <
   1  -7  14    166.44    194.70     76.50   31%2 <
  -1  -2  14   1108.40   1900.50    148.90   31%2 o
  -2   0  16   2329.50   2149.10    163.10   31%2 o
   0   5 -14   1887.40   1772.10    139.60   31%2 o
  -2   9 -11    569.09    574.70     78.60   31%2 o
  -1   6 -10    865.59   1486.30    151.00   31%2 o
  -2   8  -8    117.56    157.70     70.70   31%2 <
  -1   5  -7   1378.10    876.80    119.20   31%2 o
  -3  10  -7    328.74    541.80     98.20   31%2 o
  -3   9  -4   3824.70   4685.40    212.40   31%2 o
   5 -11  -3    949.88    680.60    104.70   31%2 o
  -2   6  -3   6644.50   6253.60    239.80   31%2 o
  -4  11  -2    108.63    173.40     69.90   31%2 <
  -3   8  -1    209.26    414.30     99.10   31%2 o
   5 -12   0     31.85     97.70     53.70   31%2 <
  -2   5   0    572.70    554.20    182.10   31%2 o
   4 -10   1    321.79    452.40     76.80   31%2 o
  -5  12   2    371.93    460.30     84.30   31%2 o
  -4   9   3    238.26    704.80    119.20   31%2 o
   4 -11   4     23.34     84.30     51.20   31%2 <
   1  -4   5   7701.80   7127.10    305.10   31%2 o
  -5  11   5    240.80    296.90     83.60   31%2 o
  -4   8   6   5921.80   5189.10    219.40   31%2 o
   2  -7   7   1323.00   1565.60    162.80   31%2 o
   1  -5   8   1407.00   1241.00    153.10   31%2 o
  -5  10   8     92.65    111.00     73.80   31%2 <
   3 -10   9     81.65    181.40     83.70   31%2 <
   2  -8  10     56.25     99.90     57.40   31%2 <
  -1  -1  11  20130.00  22298.30    427.90   31%2 o
   0  -4  13   2663.30   2644.60    168.40   31%2 o
   1  -7  15   1296.30    965.00    114.00   31%2 o
   0  -5  16    584.86    763.00     84.10   31%2 o
  -1   7 -13    907.03    925.70    101.30   31%2 o
  -2   7  -6   3060.80   3250.80    168.90   31%2 o
  -4  10   0    467.71    540.90     92.50   31%2 o
   5 -12   1    175.34      5.90     70.20   31%2 <
   4 -11   5   1279.80   1395.00    110.80   31%2 o
   3  -9   6   3749.80   2976.50    156.40   31%2 o
   3  -2 -15   1188.10   2438.10    197.50   32%2 o
   2   0 -14   7229.70   7420.50    271.00   32%2 o
   0   5 -14   1978.10   1772.10    139.60   32%2 o
   5  -8 -11    452.85    435.50    112.10   32%2 o
   1   1 -10  17406.00  21524.90    439.20   32%2 o
  -1   6 -10    906.30   1486.30    151.00   32%2 o
  -3  10  -7    351.08    541.80     98.20   32%2 o
   0   2  -6    508.90   1022.20    261.10   32%2 o
   0   1  -3  70003.00  56804.80    791.20   32%2 o
  -2   6  -3   6234.20   6253.60    239.80   32%2 o
  -5  12   2    351.09    460.30     84.30   32%2 o
  -4   9   3    368.07    704.80    119.20   32%2 o
   1  -4   5   5463.30   7127.10    305.10   32%2 o
  -5  11   5    222.27    296.90     83.60   32%2 o
  -4   8   6   5788.60   5189.10    219.40   32%2 o
   2  -7   7   1238.00   1565.60    162.80   32%2 o
  -5  10   8    164.16    111.00     73.80   32%2 <
  -4   7   9    100.68     40.90    128.70   32%2 <
  -1  -1  11  22648.00  22298.30    427.90   32%2 o
   0  -4  13   2710.30   2644.60    168.40   32%2 o
   1  -7  15   1182.30    965.00    114.00   32%2 o
  -2   0  16   2360.20   2149.10    163.10   32%2 o
   2   1 -17    120.13    149.70     79.80   32%2 <
   1   3 -16    472.01    735.40    104.40   32%2 o
   1   2 -13   7009.10   6193.50    254.50   32%2 o
  -1   7 -13    807.98    925.70    101.30   32%2 o
   0   4 -12    843.08   1020.40    153.10   32%2 o
  -2   9 -12     24.82     96.60     60.00   32%2 <
   0   3  -9   2600.10   2959.90    190.10   32%2 o
  -2   8  -9    113.20    122.80     83.40   32%2 <
   5  -9  -8     14.09    -32.10     85.40   32%2 <
  -1   5  -8    435.96    403.30    151.50   32%2 <
  -3  10  -8   1878.30   1840.10    134.90   32%2 o
  -2   7  -6   2798.30   3250.80    168.90   32%2 o
   5 -10  -5    131.51    184.40     95.60   32%2 <
  -1   4  -5   7103.80   7631.00    304.90   32%2 o
  -3   9  -5    246.78    526.10    111.90   32%2 o
   4  -8  -4    726.12    396.30    146.10   32%2 <
  -4  11  -3     15.15     90.40     66.40   32%2 <
   5 -11  -2     24.46     64.40     70.70   32%2 <
  -3   8  -2     17.42    231.80    118.20   32%2 <
   4  -9  -1    429.09    652.60    116.20   32%2 o
   3  -7   0   8302.40   8004.00    286.10   32%2 o
  -4  10   0    436.65    540.90     92.50   32%2 o
   5 -12   1    169.17      5.90     70.20   32%2 <
   2  -5   1   3484.10   4911.40    282.00   32%2 o
  -3   7   1    351.11    501.80    149.40   32%2 o
  -5  12   1     58.15     98.20     74.00   32%2 <
   4 -10   2    683.98    579.40    105.10   32%2 o
   1  -3   2    889.76   1600.30    313.40   32%2 o
   3  -8   3   1844.60   1288.80    167.20   32%2 o
   2  -6   4   1446.20   1182.90    164.30   32%2 o
  -3   6   4   4881.20   6056.00    265.00   32%2 o
  -5  11   4    611.04    548.90     94.10   32%2 o
   4 -11   5   1170.50   1395.00    110.80   32%2 o
   4 -11   6    128.85    329.90     80.70   32%2 o
   3  -9   6   3324.00   2976.50    156.40   32%2 o
   3  -9   7    569.14    746.70    135.30   32%2 o
   2  -7   8  10565.00  10159.30    311.90   32%2 o
   1  -5   9   1061.50   1015.40    186.00   32%2 o
   3 -10  10     62.38     27.80     71.80   32%2 <
   0  -3  10   4746.80   4986.90    236.20   32%2 o
   2  -8  11    113.84     25.60     78.50   32%2 <
   1  -6  12    276.65    431.80     97.70   32%2 o
  -1  -2  15    946.31    961.90    122.50   32%2 o
   2   1 -17     75.21    149.70     79.80   33%2 <
   1   3 -16    629.56    735.40    104.40   33%2 o
   0   5 -15    108.74    267.00     91.90   33%2 <
   1   2 -13   7245.60   6193.50    254.50   33%2 o
  -1   7 -13    921.16    925.70    101.30   33%2 o
   0   4 -12    996.18   1020.40    153.10   33%2 o
  -2   9 -12     27.13     96.60     60.00   33%2 <
   5  -8 -11    318.96    435.50    112.10   33%2 o
  -1   6 -11     12.16     33.00    109.30   33%2 <
   0   3  -9   2443.30   2959.90    190.10   33%2 o
  -2   8  -9    136.28    122.80     83.40   33%2 <
   5  -9  -8     22.13    -32.10     85.40   33%2 <
  -1   5  -8    396.01    403.30    151.50   33%2 <
  -3  10  -8   1907.10   1840.10    134.90   33%2 o
   4  -7  -7    591.31    789.10    154.80   33%2 o
   0   2  -6    790.18   1022.20    261.10   33%2 o
   5 -10  -5    115.01    184.40     95.60   33%2 <
  -1   4  -5   7000.10   7631.00    304.90   33%2 o
  -3   9  -5    239.78    526.10    111.90   33%2 o
   4  -8  -4    606.20    396.30    146.10   33%2 <
   3  -6  -3    298.79    554.30    183.00   33%2 o
  -4  11  -3     38.49     90.40     66.40   33%2 <
   5 -11  -2     30.56     64.40     70.70   33%2 <
  -1   3  -2    859.95    962.50    359.00   33%2 <
  -3   8  -2     17.33    231.80    118.20   33%2 <
   4  -9  -1    473.66    652.60    116.20   33%2 o
   3  -7   0   8763.80   8004.00    286.10   33%2 o
  -4  10   0    477.46    540.90     92.50   33%2 o
   5 -12   1    174.61      5.90     70.20   33%2 <
   2  -5   1   4134.90   4911.40    282.00   33%2 o
  -3   7   1    428.10    501.80    149.40   33%2 o
  -5  12   1     33.86     98.20     74.00   33%2 <
   4 -10   2    789.63    579.40    105.10   33%2 o
   1  -3   2    936.27   1600.30    313.40   33%2 o
   3  -8   3   1946.10   1288.80    167.20   33%2 o
   2  -6   4   1536.80   1182.90    164.30   33%2 o
  -3   6   4   4904.70   6056.00    265.00   33%2 o
  -5  11   4    766.36    548.90     94.10   33%2 o
   4 -11   6     81.47    329.90     80.70   33%2 o
  -4   8   6   5511.90   5189.10    219.40   33%2 o
   3  -9   7    952.41    746.70    135.30   33%2 o
   2  -7   8  10642.00  10159.30    311.90   33%2 o
   1  -5   9   1257.20   1015.40    186.00   33%2 o
  -4   7   9    151.42     40.90    128.70   33%2 <
   3 -10  10     48.10     27.80     71.80   33%2 <
   0  -3  10   4197.60   4986.90    236.20   33%2 o
   2  -8  11    109.51     25.60     78.50   33%2 <
   1  -6  12    349.29    431.80     97.70   33%2 o
  -2   1  13   8507.30   7951.40    300.20   33%2 o
   0  -4  14    581.77    750.20    122.20   33%2 o
  -1  -2  15    839.84    961.90    122.50   33%2 o
  -1   7 -14    293.76    471.50     86.40   33%2 o
  -2   8 -10    132.82    364.80     79.70   33%2 o
  -2   7  -7   1342.70   1875.30    162.50   33%2 o
  -2   6  -4   1524.20   1722.80    165.60   33%2 o
  -4  11  -4     18.45     77.30     65.50   33%2 <
   5 -11  -1    113.75    134.40     79.70   33%2 <
  -4  10  -1    229.93    193.60     75.80   33%2 <
  -4   9   2    186.47     66.20    106.70   33%2 <
   4 -10   3    239.21    -35.30     89.10   33%2 <
   3  -8   4   2352.40   1783.20    173.50   33%2 o
  -5  10   7    151.53    200.70     76.90   33%2 <
   2  -8  12     28.47    -18.40     73.10   33%2 <
   1  -6  13     32.19    209.10     79.90   33%2 <
   0   5 -15    106.49    267.00     91.90   34%2 <
  -1   7 -14    314.52    471.50     86.40   34%2 o
  -1   6 -11      8.22     33.00    109.30   34%2 <
   4  -6 -10    306.72    702.40    181.10   34%2 o
  -2   8 -10    114.91    364.80     79.70   34%2 o
   4  -7  -7    419.45    789.10    154.80   34%2 o
  -2   7  -7   1294.60   1875.30    162.50   34%2 o
   3  -5  -6   9955.10   9284.50    328.10   34%2 o
  -2   6  -4   1311.20   1722.80    165.60   34%2 o
  -4  11  -4     18.42     77.30     65.50   34%2 <
   3  -6  -3    245.39    554.30    183.00   34%2 o
   2  -4  -2  36180.00  34010.00    557.30   34%2 o
  -1   3  -2    761.90    962.50    359.00   34%2 <
   5 -11  -1     54.28    134.40     79.70   34%2 <
   1  -2  -1 158360.00  99959.60   1006.80   34%2 o
  -2   5  -1   7470.30   9647.10    314.80   34%2 o
  -4  10  -1    204.93    193.60     75.80   34%2 <
  -4   9   2    161.18     66.20    106.70   34%2 <
   4 -10   3    208.07    -35.30     89.10   34%2 <
   3  -8   4   2074.90   1783.20    173.50   34%2 o
   2  -6   5   4982.60   7531.10    275.70   34%2 o
  -4   8   5   2875.70   2897.80    179.30   34%2 o
   1  -4   6  15014.00  15832.70    373.70   34%2 o
   0  -2   7  28531.00  32721.80    522.40   34%2 o
  -3   5   7   3525.10   4194.40    282.80   34%2 o
  -5  10   7    134.36    200.70     76.90   34%2 <
  -5   9  10    141.33    112.50     80.90   34%2 <
   2  -8  12     35.76    -18.40     73.10   34%2 <
  -1  -1  12  10684.00  16728.90    410.40   34%2 o
   1  -6  13     24.64    209.10     79.90   34%2 <
  -2   1  13   7648.20   7951.40    300.20   34%2 o
   0  -4  14    529.77    750.20    122.20   34%2 o
  -1  -2  16    540.41    886.70    124.00   34%2 o
   0   5 -16    455.78    780.00    112.30   34%2 o
  -1   7 -15   1018.90   1090.70    120.30   34%2 o
   0   4 -13   3387.60   4062.30    197.20   34%2 o
  -1   6 -12    836.30    974.20    118.20   34%2 o
  -3  10  -9    241.85    344.20     88.20   34%2 o
  -3   9  -6   3329.90   3712.70    189.10   34%2 o
  -4  11  -5     59.29     96.30     77.80   34%2 <
   5 -10  -4     16.45     72.90     79.20   34%2 <
  -3   8  -3   2072.70   1846.80    167.40   34%2 o
  -4  10  -2    217.16    340.10     86.80   34%2 o
   4  -9   0    440.87   1154.30    131.50   34%2 o
  -3   7   0   4140.10   5372.90    239.30   34%2 o
  -5  12   0    281.23    306.80     72.30   34%2 o
   3  -7   1   3749.30   5187.00    228.90   34%2 o
  -5  11   3   1126.00   1284.20    110.20   34%2 o
   4 -10   4     55.07    338.70     91.90   34%2 o
   3  -9   8   1189.20   1929.30    131.20   34%2 o
   2  -7   9   6340.90   5001.30    223.70   34%2 o
   1  -5  10   6124.10   5341.50    232.00   34%2 o
   0  -3  11   1114.50   2373.40    198.20   34%2 o
   2  -8  13     76.04     44.80     76.80   34%2 <
   1  -6  14     59.51    398.10     89.30   34%2 o
   0  -4  15   2822.30   2832.20    176.90   34%2 o
   5 -11   0     73.26    -30.60     66.60   34%2 <
  -4   6  12   1337.70   1624.30    179.80   35%2 o
   1   3 -17    416.54    727.60    107.30   35%2 o
   0   5 -16    388.55    780.00    112.30   35%2 o
  -1   7 -15   1299.80   1090.70    120.30   35%2 o
   1   2 -14   1703.60   2524.90    168.00   35%2 o
   0   4 -13   4375.00   4062.30    197.20   35%2 o
  -1   6 -12    580.16    974.20    118.20   35%2 o
   1   1 -11  23048.00  22085.70    433.30   35%2 o
   4  -6 -10    291.77    702.40    181.10   35%2 o
   0   3 -10   4763.80   7000.70    262.30   35%2 o
  -1   5  -9   7444.00   6289.70    253.40   35%2 o
  -3  10  -9    258.83    344.20     88.20   35%2 o
   5  -9  -7     17.65     15.90     86.90   35%2 <
   3  -5  -6   8633.70   9284.50    328.10   35%2 o
  -3   9  -6   3902.20   3712.70    189.10   35%2 o
  -4  11  -5     62.79     96.30     77.80   35%2 <
   5 -10  -4     16.91     72.90     79.20   35%2 <
   4  -8  -3    126.80    100.70    141.10   35%2 <
  -3   8  -3   2460.70   1846.80    167.40   35%2 o
   2  -4  -2  42808.00  34010.00    557.30   35%2 o
  -4  10  -2    249.97    340.10     86.80   35%2 o
  -2   5  -1   7508.60   9647.10    314.80   35%2 o
   4  -9   0    564.15   1154.30    131.50   35%2 o
  -3   7   0   4532.10   5372.90    239.30   35%2 o
  -5  12   0    243.28    306.80     72.30   35%2 o
   3  -7   1   4776.50   5187.00    228.90   35%2 o
  -2   4   2  39818.00  33607.00    551.80   35%2 o
  -5  11   3   1269.10   1284.20    110.20   35%2 o
   4 -10   4     91.19    338.70     91.90   35%2 o
   3  -8   4   2431.20   1783.20    173.50   35%2 o
   2  -6   5   5727.50   7531.10    275.70   35%2 o
  -4   8   5   3071.40   2897.80    179.30   35%2 o
   1  -4   6  12938.00  15832.70    373.70   35%2 o
  -5  10   6    635.65    922.50    106.00   35%2 o
   0  -2   7  34321.00  32721.80    522.40   35%2 o
  -3   5   7   5105.90   4194.40    282.80   35%2 o
   3  -9   8   1063.50   1929.30    131.20   35%2 o
   2  -7   9   6891.50   5001.30    223.70   35%2 o
   1  -5  10   6750.50   5341.50    232.00   35%2 o
  -5   9  10     58.17    112.50     80.90   35%2 <
   0  -3  11   1346.70   2373.40    198.20   35%2 o
  -1  -1  12  10901.00  16728.90    410.40   35%2 o
   2  -8  13    114.09     44.80     76.80   35%2 <
   1  -6  14     75.91    398.10     89.30   35%2 o
   0  -4  15   3059.60   2832.20    176.90   35%2 o
  -1  -2  16    804.83    886.70    124.00   35%2 o
  -2   8 -11    194.26    268.60     83.00   35%2 o
  -3  10 -10     17.06    -31.90     65.50   35%2 <
  -2   7  -8   7447.30   7324.50    250.60   35%2 o
  -3   9  -7    609.83    664.20    104.60   35%2 o
  -5  12  -1    191.29    142.80     61.20   35%2 <
   5 -11   0     84.10    -30.60     66.60   35%2 <
  -4   9   1    543.41    587.70    116.00   35%2 o
   2  -5   2   2771.40   1315.10    208.10   35%2 o
   3  -8   5   1051.90    864.40    145.30   35%2 o
   3  -9   9     47.57    116.30     77.60   35%2 <
   0  -3  12    106.95    225.70    123.50   36%2 <
   0  -4  16   2880.70   2673.80    171.30   36%2 o
  -1  -2  17    455.03    243.50    101.90   36%2 <
   0   4 -14   2009.90   1382.70    142.30   36%2 o
   2  -1 -12   5589.90   7686.20    325.20   36%2 o
   5  -8 -10     80.64    361.30    108.60   36%2 o
   4  -7  -6   3528.10   4280.40    235.50   36%2 o
  -2   5  -2   4879.20   3628.90    249.60   36%2 o
  -3   7  -1   2923.50   3802.90    220.70   36%2 o
  -4   8   4    742.18    155.20    151.20   36%2 <
  -5  10   5    619.59    922.30    104.80   36%2 o
  -4   7   8   1540.70   1907.00    173.60   36%2 o
  -5   9   9     22.65    -58.10     85.60   36%2 <
   1   3 -17    438.97    727.60    107.30   36%2 o
  -1   7 -15   1321.10   1090.70    120.30   36%2 o
   1   2 -14   1723.50   2524.90    168.00   36%2 o
  -1   6 -12    645.63    974.20    118.20   36%2 o
   1   1 -11  24301.00  22085.70    433.30   36%2 o
  -2   8 -11    203.03    268.60     83.00   36%2 o
   0   3 -10   4869.70   7000.70    262.30   36%2 o
  -3  10 -10     18.48    -31.90     65.50   36%2 <
  -1   5  -9   7873.90   6289.70    253.40   36%2 o
  -2   7  -8   7916.60   7324.50    250.60   36%2 o
   5  -9  -7     17.34     15.90     86.90   36%2 <
   0   2  -7  51810.00  51572.70    622.20   36%2 o
  -3   9  -7    642.48    664.20    104.60   36%2 o
  -1   4  -6   4289.90   4562.20    250.30   36%2 o
  -4  11  -6     86.37    293.80     75.10   36%2 o
  -2   6  -5   5631.80   6635.80    252.60   36%2 o
  -3   8  -4   1637.10   1659.10    159.20   36%2 o
   5 -10  -3     13.41    -60.40     95.10   36%2 <
   4  -8  -3    141.18    100.70    141.10   36%2 <
   3  -6  -2   2076.20   3913.20    227.50   36%2 o
  -5  12  -1    213.42    142.80     61.20   36%2 <
   5 -11   0     75.98    -30.60     66.60   36%2 <
   4  -9   1     60.77    -73.20     93.70   36%2 <
  -4   9   1    588.83    587.70    116.00   36%2 o
   2  -5   2   2905.00   1315.10    208.10   36%2 o
  -2   4   2  41883.00  33607.00    551.80   36%2 o
  -5  11   2     41.30     71.50     81.30   36%2 <
   1  -3   3  20110.00  22265.50    463.00   36%2 o
  -3   6   3   1116.80    988.00    172.20   36%2 o
   4 -10   5     38.72    -43.90     78.50   36%2 <
   3  -8   5   1082.40    864.40    145.30   36%2 o
   2  -6   6    219.91    174.60    127.10   36%2 <
  -5  10   6    655.19    922.50    106.00   36%2 o
   3  -9   9     47.74    116.30     77.60   36%2 <
   2  -7  10    967.09   1201.40    128.80   36%2 o
   1  -6  15    365.43    375.00     82.00   36%2 o
  -1   6 -13     31.52    179.50     73.80   36%2 <
  -2   8 -12     81.31     29.10     67.60   36%2 <
  -2   7  -9   2889.30   3140.40    187.10   36%2 o
  -3   9  -8    487.35    976.90    111.80   36%2 o
  -4  10  -3    216.28    206.70     86.00   36%2 <
   5 -11   1    248.87    289.60     84.40   36%2 o
   3  -7   2   6996.10   6711.00    252.10   36%2 o
   3  -8   6   1745.90   1762.40    155.80   36%2 o
   1  -4   7    776.00    911.10    161.90   36%2 o
   3  -9  10    217.69    123.90     82.70   36%2 <
   1  -5  11    711.98    725.40    119.40   36%2 o
   2  -7  12   2015.30   1493.60    132.50   37%2 o
   1  -5  12    267.34    371.90    111.50   37%2 o
   0  -3  13   5622.30   5141.50    231.50   37%2 o
  -1  -1  13  17441.00  17446.60    380.40   37%2 o
  -2   1  14   3991.60   3750.90    226.90   37%2 o
  -3   3  15   1639.10   2333.80    207.30   37%2 o
   3  -2 -16   4013.30   2696.00    212.80   37%2 o
   1   2 -15    652.26    750.80    128.10   37%2 o
   0   4 -14   2108.00   1382.70    142.30   37%2 o
  -1   6 -14    104.36     61.90     86.70   37%2 <
  -2   8 -13     27.12     41.10     61.40   37%2 <
   0   3 -11    785.43    938.00    144.60   37%2 o
  -1   5 -10   4521.70   4471.40    229.30   37%2 o
  -2   7 -10   1302.80   1565.20    132.50   37%2 o
  -3   9  -9     38.52    164.00     69.20   37%2 <
  -1   4  -7    178.01    294.30    165.90   37%2 <
   5  -9  -6    126.44    339.30    103.30   37%2 o
  -2   6  -6    199.32    199.30    121.00   37%2 <
  -3   8  -5   1214.10    830.70    134.90   37%2 o
  -4  10  -4    144.16    221.10     80.50   37%2 <
  -1   3  -3  18528.00  20263.90    446.10   37%2 o
   5 -10  -2    604.35    851.40    112.30   37%2 o
   4  -8  -2    609.26   1216.80    171.00   37%2 o
  -2   5  -2   5041.70   3628.90    249.60   37%2 o
   2  -4  -1    245.95   1329.50    297.00   37%2 o
  -3   7  -1   3212.10   3802.90    220.70   37%2 o
  -4   9  -1     44.99     44.20     85.20   37%2 <
  -4   9   0     26.96    138.60    111.50   37%2 <
  -5  11   0     86.38    103.60     62.80   37%2 <
  -5  11   1     22.52     -1.70     59.20   37%2 <
   5 -11   2    867.05    570.70     94.20   37%2 o
   4  -9   2    942.34   1113.80    131.70   37%2 o
  -3   6   2    703.05    578.40    162.40   37%2 o
   5 -11   3     75.42     12.80     73.00   37%2 <
   4  -9   3    270.83     73.20    107.90   37%2 <
   3  -7   3  21865.00  22741.70    427.20   37%2 o
   2  -5   3  25915.00  27327.70    471.90   37%2 o
  -4   8   3    243.49    323.70    133.80   37%2 <
   0  -1   4    358.23   2207.70    380.40   37%2 o
  -5  10   4     49.12    124.10     81.60   37%2 <
  -5  10   5    630.75    922.30    104.80   37%2 o
   4 -10   7    190.35    235.90     76.40   37%2 o
   3  -8   7    314.43    768.30    123.80   37%2 o
   2  -6   7   1610.00   1142.20    156.30   37%2 o
  -4   7   7    747.95    588.80    149.30   37%2 o
   1  -4   8  14359.00  13805.00    353.30   37%2 o
   0  -2   8    231.97   1129.30    191.00   37%2 o
  -5   9   8    167.80    308.30     99.80   37%2 o
  -1   0   9  34523.00  33045.00    543.10   37%2 o
   3  -9  11     94.81    177.90     84.30   37%2 <
   3  -9  12    648.39    567.30     93.10   37%2 o
  -2   7  -9   3142.10   3140.40    187.10   37%2 o
  -3   9  -8    480.11    976.90    111.80   37%2 o
   2  -7  11    347.88    309.70     96.10   37%2 o
   4 -10   6   1360.40   1190.10    103.40   37%2 o
   2  -7  12   1704.20   1493.60    132.50   38%2 o
   1  -5  12    243.46    371.90    111.50   38%2 o
   0  -3  13   5323.10   5141.50    231.50   38%2 o
  -2   1  14   3974.20   3750.90    226.90   38%2 o
  -3   3  15   2227.50   2333.80    207.30   38%2 o
   3  -2 -16   2837.70   2696.00    212.80   38%2 o
   2   0 -16   1439.60   1334.00    141.90   38%2 o
   1   2 -15    720.54    750.80    128.10   38%2 o
   0   4 -15   3058.30   2596.20    151.90   38%2 o
  -1   6 -14    111.80     61.90     86.70   38%2 <
  -2   8 -13     22.52     41.10     61.40   38%2 <
   1   1 -12  17859.00  16829.20    404.10   38%2 o
   0   3 -11    756.74    938.00    144.60   38%2 o
  -1   5 -11    977.07    732.50    121.90   38%2 o
  -2   7 -10   1262.60   1565.20    132.50   38%2 o
  -3   9  -9     40.84    164.00     69.20   38%2 <
  -1   4  -7    180.02    294.30    165.90   38%2 <
   5  -9  -6    123.79    339.30    103.30   38%2 o
  -2   6  -6    256.47    199.30    121.00   38%2 <
  -3   8  -6   1813.20   1948.60    158.20   38%2 o
   3  -5  -5   1585.40   1946.90    226.70   38%2 o
  -3   8  -5   1145.20    830.70    134.90   38%2 o
  -4  10  -5     43.31    130.40     74.90   38%2 <
   0   1  -4    652.17   1340.00    415.60   38%2 o
  -4  10  -4    141.10    221.10     80.50   38%2 <
  -1   3  -3  18041.00  20263.90    446.10   38%2 o
   5 -10  -2    550.42    851.40    112.30   38%2 o
  -3   7  -2   7464.50   6873.90    250.90   38%2 o
   5 -10  -1    212.54    474.30     98.20   38%2 o
   4  -8  -1   1693.00   1639.90    180.60   38%2 o
   3  -6  -1   1461.50    662.30    176.70   38%2 o
   2  -4  -1    213.00   1329.50    297.00   38%2 o
  -4   9  -1     47.87     44.20     85.20   38%2 <
  -5  11   0     98.50    103.60     62.80   38%2 <
  -5  11   1     11.57     -1.70     59.20   38%2 <
   5 -11   2    850.18    570.70     94.20   38%2 o
   4  -9   2    998.48   1113.80    131.70   38%2 o
  -3   6   2    744.74    578.40    162.40   38%2 o
   5 -11   3     70.35     12.80     73.00   38%2 <
   4  -9   3    259.71     73.20    107.90   38%2 <
   3  -7   3  22297.00  22741.70    427.20   38%2 o
   2  -5   3  25664.00  27327.70    471.90   38%2 o
  -4   8   3    339.69    323.70    133.80   38%2 <
   0  -1   4    401.48   2207.70    380.40   38%2 o
  -5  10   4     52.45    124.10     81.60   38%2 <
  -3   5   6   2611.60   3820.30    243.30   38%2 o
   4 -10   7    231.88    235.90     76.40   38%2 o
   3  -8   7    302.57    768.30    123.80   38%2 o
   2  -6   7   1526.30   1142.20    156.30   38%2 o
  -4   7   7    717.68    588.80    149.30   38%2 o
   4 -10   8     79.52    -41.80     79.30   38%2 <
   3  -8   8    216.04    419.30    104.30   38%2 o
   2  -6   8    488.39    533.60    149.20   38%2 o
   1  -4   8  14245.00  13805.00    353.30   38%2 o
   0  -2   8    164.73   1129.30    191.00   38%2 o
  -5   9   8    105.56    308.30     99.80   38%2 o
  -1   0   9  33492.00  33045.00    543.10   38%2 o
   3  -9  11     94.53    177.90     84.30   38%2 <
   3  -9  12    683.96    567.30     93.10   38%2 o
   2  -7  13    442.38    381.90     96.10   38%2 o
   1  -5  13   1707.80   1535.30    136.90   38%2 o
   2   0 -16   1474.20   1334.00    141.90   39%2 o
   1   2 -16     22.95    188.00     96.70   39%2 <
   0   4 -15   3052.80   2596.20    151.90   39%2 o
  -1   6 -14    107.90     61.90     86.70   39%2 <
   1   1 -12  17935.00  16829.20    404.10   39%2 o
  -1   5 -11    650.78    732.50    121.90   39%2 o
  -2   7 -10   1302.00   1565.20    132.50   39%2 o
   5  -8  -9    684.71    879.40    133.10   39%2 o
   4  -6  -9   3006.60   2465.70    222.50   39%2 o
  -3   9  -9     42.22    164.00     69.20   39%2 <
   0   2  -8    648.79   1838.70    208.40   39%2 o
  -1   4  -7    163.60    294.30    165.90   39%2 <
  -3   8  -6   1817.30   1948.60    158.20   39%2 o
   5  -9  -5   3903.70   3443.50    188.70   39%2 o
   4  -7  -5   2444.30   2279.80    199.10   39%2 o
   3  -5  -5   1463.90   1946.90    226.70   39%2 o
  -4  10  -5     47.06    130.40     74.90   39%2 <
   0   1  -4    583.23   1340.00    415.60   39%2 o
  -2   5  -3  24358.00  29157.60    482.00   39%2 o
  -3   7  -2   7302.00   6873.90    250.90   39%2 o
   5 -10  -1    234.40    474.30     98.20   39%2 o
   4  -8  -1   1955.10   1639.90    180.60   39%2 o
   3  -6  -1   1495.50    662.30    176.70   39%2 o
  -4   9  -1     42.99     44.20     85.20   39%2 <
  -5  11   0     79.75    103.60     62.80   39%2 <
  -2   4   1   3777.70   6315.00    346.10   39%2 o
  -3   6   2    750.97    578.40    162.40   39%2 o
   5 -11   3     77.66     12.80     73.00   39%2 <
   4  -9   3    281.93     73.20    107.90   39%2 <
   3  -7   3  21699.00  22741.70    427.20   39%2 o
  -4   8   3    221.45    323.70    133.80   39%2 <
  -5  10   4     50.41    124.10     81.60   39%2 <
  -3   5   6   3273.60   3820.30    243.30   39%2 o
   4 -10   7    168.63    235.90     76.40   39%2 o
  -4   7   7    741.36    588.80    149.30   39%2 o
   4 -10   8     68.94    -41.80     79.30   39%2 <
   3  -8   8    259.03    419.30    104.30   39%2 o
   2  -6   8    457.26    533.60    149.20   39%2 o
   1  -4   8  13918.00  13805.00    353.30   39%2 o
  -5   9   8    199.30    308.30     99.80   39%2 o
   0  -2   9    195.89    945.70    205.60   39%2 o
  -1   0   9  34270.00  33045.00    543.10   39%2 o
   3  -9  12    613.26    567.30     93.10   39%2 o
   2  -7  12   2063.80   1493.60    132.50   39%2 o
   2  -7  13    466.62    381.90     96.10   39%2 o
   1  -5  13   1730.20   1535.30    136.90   39%2 o
   0  -3  13   5445.20   5141.50    231.50   39%2 o
  -1  -1  14    158.07   1085.90    138.10   39%2 o
  -1   6 -15    182.11    217.40     76.60   39%2 <
   0   3 -12     67.55     83.10    144.80   39%2 <
  -2   7 -11    225.21    159.40     84.70   39%2 <
  -3   9 -10    256.44    224.50     73.30   39%2 o
  -2   6  -7   1708.90   1613.20    164.00   39%2 o
  -4   9  -2    989.02   1137.80    126.10   39%2 o
  -5  11  -1    131.59    138.60     62.50   39%2 <
  -5  10   3     18.97    107.80     66.60   39%2 <
   5 -11   4    341.20     -7.10     82.10   39%2 <
   4  -9   4   1849.20   1970.70    147.60   39%2 o
   3  -7   4   2543.00   2155.40    181.10   39%2 o
   2  -5   4   6999.30   6822.00    283.70   39%2 o
   0  -3  14   2154.90   2106.10    162.70   39%2 o
   1   2 -16     17.67    188.00     96.70   40%2 <
   0   4 -16   3504.90   3267.30    181.00   40%2 o
   0   3 -12     65.70     83.10    144.80   40%2 <
  -2   7 -11    211.74    159.40     84.70   40%2 <
  -1   4  -8  12041.00  12006.00    327.10   40%2 o
  -4  10  -6   1414.80   1361.20    124.70   40%2 o
  -1   3  -4  74791.00  65128.40    722.60   40%2 o
  -4   9  -2   1003.30   1137.80    126.10   40%2 o
  -4   8   2     39.52    187.80    132.70   40%2 <
  -5  10   3     19.84    107.80     66.60   40%2 <
   4  -9   4   1819.40   1970.70    147.60   40%2 o
   3  -7   4   2654.10   2155.40    181.10   40%2 o
   2  -5   4   6914.20   6822.00    283.70   40%2 o
  -5   9   7    649.49    491.30    107.60   40%2 o
   3  -8   9    531.14    723.80    109.30   40%2 o
   2  -6   9   1961.60   1959.50    194.10   40%2 o
   1  -4   9   7288.30   8632.90    296.70   40%2 o
   0  -2   9    173.96    945.70    205.60   40%2 o
  -4   6  11    185.62    157.10    161.60   40%2 <
   2  -7  14    169.42    171.30     78.80   40%2 <
   1  -5  14     87.86    190.20    103.70   40%2 <
   0  -3  14   1944.00   2106.10    162.70   40%2 o
  -1  -1  15    108.16    733.70    128.40   40%2 o
  -2   1  15    173.13    189.70    111.10   40%2 <
  -1   5 -12     19.72    136.90     90.90   40%2 <
  -2   7 -12    834.89    923.70    108.90   40%2 o
  -3   9 -11    152.33    294.00     74.90   40%2 o
  -2   6  -8    294.22    425.70    136.80   40%2 o
  -3   8  -7    275.34    993.70    127.70   40%2 o
  -4  10  -7     86.42    219.10     82.00   40%2 <
   5  -9  -4    229.08     91.00     93.20   40%2 <
   4  -7  -4   2029.30   2435.90    201.40   40%2 o
  -2   5  -4   7070.00   8749.70    311.70   40%2 o
  -3   7  -3  24571.00  26871.30    446.70   40%2 o
  -4   9  -3    238.57    138.60     97.90   40%2 <
  -5  11  -2    589.44    606.20     90.70   40%2 o
   5 -10   0    642.18    647.80    101.20   40%2 o
   4  -8   0   1948.50   2419.30    179.60   40%2 o
   3  -6   0    476.78    307.90    151.90   40%2 <
   2  -4   0  27402.00  28280.50    506.00   40%2 o
  -3   6   1   1796.70   1833.30    169.70   40%2 o
  -5  10   2   1144.80   1747.40    122.30   40%2 o
   5 -11   5    316.29    188.10     83.90   40%2 <
   4  -9   5    252.61    415.90    108.40   40%2 o
   3  -7   5   7112.90   7783.70    273.50   40%2 o
  -4   7   6   4459.20   4311.80    223.40   40%2 o
   3  -8  10     91.45    230.20     88.40   40%2 <
   2  -6  10    317.66    545.40    148.40   40%2 o
   1  -5  15    339.94    522.20     94.60   40%2 o
   0  -3  15    536.05    552.80    117.20   40%2 o
  -3   9 -12    661.43    208.60     73.70   40%2 <
  -3   8  -8    198.04    165.60     98.90   40%2 <
   5 -10   1    758.91    714.30    106.20   40%2 o
   2  -5   5  32216.00  24945.20    440.90   40%2 o
   1  -4  10   2825.30   5096.70    230.80   40%2 o
   1   2 -17    594.65    974.20    124.50   41%2 o
   2  -1 -13  11259.00   9799.50    315.90   41%2 o
   1   1 -13  22666.00  15561.30    374.50   41%2 o
  -1   5 -12     29.73    136.90     90.90   41%2 <
  -2   7 -12    807.05    923.70    108.90   41%2 o
   1   0  -9  32957.00  27816.40    520.10   41%2 o
   5  -8  -8    710.27    456.20    124.20   41%2 o
  -2   6  -8    264.03    425.70    136.80   41%2 o
  -4  10  -7    118.28    219.10     82.00   41%2 <
   5  -9  -4    212.11     91.00     93.20   41%2 <
   4  -7  -4   2108.10   2435.90    201.40   41%2 o
  -2   5  -4   6707.60   8749.70    311.70   41%2 o
  -4   9  -3    261.49    138.60     97.90   41%2 <
  -5  11  -2    582.67    606.20     90.70   41%2 o
   4  -8   0   1795.90   2419.30    179.60   41%2 o
   3  -6   0    472.59    307.90    151.90   41%2 <
   2  -4   0  27517.00  28280.50    506.00   41%2 o
  -3   6   1   1885.80   1833.30    169.70   41%2 o
  -5  10   2   1097.80   1747.40    122.30   41%2 o
   4  -9   5    237.57    415.90    108.40   41%2 o
   3  -7   5   6250.50   7783.70    273.50   41%2 o
  -2   3   5 139670.00 122773.00   1017.50   41%2 o
  -4   7   6   4674.80   4311.80    223.40   41%2 o
   3  -8  10     75.74    230.20     88.40   41%2 <
   2  -6  10    433.90    545.40    148.40   41%2 o
   0  -2  10   7192.20   6119.20    269.60   41%2 o
  -5   8  11    376.92    529.90    108.70   41%2 o
   1  -5  15    268.33    522.20     94.60   41%2 o
   0  -3  15    303.11    552.80    117.20   41%2 o
  -1  -1  15    126.51    733.70    128.40   41%2 o
  -2   1  15    155.83    189.70    111.10   41%2 <
   0   3 -13   3353.30   3494.50    190.90   41%2 o
  -1   5 -13   2445.40   2505.00    154.40   41%2 o
  -3   9 -12    564.69    208.60     73.70   41%2 <
   0   2  -9   6735.80   6334.50    256.00   41%2 o
  -1   4  -9   6523.40   9231.20    293.20   41%2 o
  -3   8  -8    168.74    165.60     98.90   41%2 <
  -4  10  -8     61.58    133.90     69.20   41%2 <
   3  -5  -4   3065.70   4421.60    256.90   41%2 o
  -3   7  -4   1029.00   1901.00    173.00   41%2 o
   5  -9  -3   3479.10   3986.70    196.10   41%2 o
  -5  11  -3     87.12    191.60     69.40   41%2 <
  -2   4   0  22902.00  27674.70    484.80   41%2 o
   5 -10   1    750.88    714.30    106.20   41%2 o
   4  -8   1    548.69    601.50    134.60   41%2 o
  -4   8   1   1722.80   2120.10    161.50   41%2 o
  -5  10   1    107.33    202.70     95.40   41%2 <
   2  -5   5  30912.00  24945.20    440.90   41%2 o
   1  -3   5   2603.00   7020.70    321.60   41%2 o
   4  -9   6     20.16    177.90     87.10   41%2 <
  -5   9   6   1102.70    964.20    119.30   41%2 o
   1  -4  10   3412.50   5096.70    230.80   41%2 o
   3  -8  11     91.64      6.50     75.30   41%2 <
   1  -5  16     64.94     77.20     71.50   41%2 <
   0  -3  16     46.84    117.80     91.30   41%2 <
  -2   7 -13   1525.90   1867.20    134.10   41%2 o
  -4   9  -4    632.25   1114.70    126.80   41%2 o
   5 -10   2     97.92     79.60     79.40   41%2 <
   3  -7   6    222.06    209.50    143.50   41%2 <
   2  -6  11   1859.30   2258.80    155.00   41%2 o
  -1   5 -13   2539.40   2505.00    154.40   42%2 o
   5  -7 -12   1376.00   1395.60    162.40   42%2 o
   1   0  -9  36576.00  27816.40    520.10   42%2 o
   0   2  -9   6309.80   6334.50    256.00   42%2 o
  -1   4  -9   7765.60   9231.20    293.20   42%2 o
   4  -6  -8   9614.00   8897.50    305.50   42%2 o
  -4  10  -8     77.63    133.90     69.20   42%2 <
   3  -5  -4   3614.00   4421.60    256.90   42%2 o
   5  -9  -3   3876.10   3986.70    196.10   42%2 o
  -2   4   0  25300.00  27674.70    484.80   42%2 o
   4  -8   1    576.76    601.50    134.60   42%2 o
  -5  10   1    131.82    202.70     95.40   42%2 <
   1  -3   5   3059.90   7020.70    321.60   42%2 o
   0  -1   5   1591.40   2679.10    371.10   42%2 o
  -3   5   5   6202.60   6400.70    287.60   42%2 o
  -4   7   5   1180.40   1415.50    210.30   42%2 o
  -5   9   6   1108.20    964.20    119.30   42%2 o
   3  -8  11    100.70      6.50     75.30   42%2 <
  -5   8  11    463.21    529.90    108.70   42%2 o
   1  -5  16     72.88     77.20     71.50   42%2 <
   0  -3  16     57.51    117.80     91.30   42%2 <
  -1  -1  16    549.72   1036.20    125.10   42%2 o
  -2   1  16    327.76    726.40    123.60   42%2 o
   0   3 -14   1946.50   2076.00    162.30   42%2 o
  -1   5 -14     83.95    158.00     95.20   42%2 <
  -2   7 -13   1663.50   1867.20    134.10   42%2 o
  -2   6  -9    706.47    856.40    143.10   42%2 o
  -3   8  -9    462.95    527.40    100.60   42%2 o
   5  -8  -7   2801.90   2093.60    168.10   42%2 o
  -1   3  -5   5892.70   6858.90    318.90   42%2 o
  -3   7  -5   9911.50   9742.20    314.40   42%2 o
  -4   9  -4    749.75   1114.70    126.80   42%2 o
  -5  11  -4    336.59    229.10     72.40   42%2 o
   4  -7  -3   3877.40   4232.20    230.90   42%2 o
   6 -11  -2    943.06    615.90     95.30   42%2 o
  -3   6   0    521.36    728.70    148.40   42%2 o
  -4   8   0   4350.40   5021.40    232.40   42%2 o
  -5  10   0    470.68    559.60    110.30   42%2 o
   3  -6   1  17047.00  14314.00    349.30   42%2 o
   2  -4   1  15288.00  14780.80    422.30   42%2 o
   5 -10   2     91.47     79.60     79.40   42%2 <
   4  -8   2     32.68    -87.80    147.50   42%2 <
  -5   9   5   5768.80   5625.00    224.70   42%2 o
   3  -7   6    237.69    209.50    143.50   42%2 <
   2  -5   6    349.88    466.80    177.90   42%2 <
   4  -9   7    551.00    405.70     94.70   42%2 o
   2  -6  11   1970.90   2258.80    155.00   42%2 o
   1  -4  11   6220.30   6900.70    272.50   42%2 o
   0  -2  11    141.93    617.20    167.50   42%2 o
   3  -8  12     21.62    -36.80     68.90   42%2 <
   2  -6  12      5.25    179.90     99.30   42%2 <
   0  -3  17     20.61     71.50     84.50   42%2 <
  -2   7 -14    301.53    180.20     72.80   42%2 <
  -4   9  -5    419.54    641.00    106.60   42%2 o
   5  -9  -2    329.45    137.60     87.00   42%2 <
   6 -11  -1     54.03     36.10     64.00   42%2 <
   5 -10   3     73.55    226.60     82.60   42%2 <
   3  -7   7   9144.50   7264.40    271.60   42%2 o
   4  -9   8    249.10    126.70     87.40   42%2 <
   3  -8  13    115.48    268.40     73.30   42%2 o
   1   1 -14    268.31    980.60    156.40   43%2 o
   0   3 -14   2280.50   2076.00    162.30   43%2 o
  -1   5 -14    150.37    158.00     95.20   43%2 <
  -2   7 -13   1747.80   1867.20    134.10   43%2 o
   5  -7 -12   1540.70   1395.60    162.40   43%2 o
  -1   4  -9   5367.50   9231.20    293.20   43%2 o
  -2   6  -9    661.29    856.40    143.10   43%2 o
  -3   8  -9    623.81    527.40    100.60   43%2 o
   4  -6  -8   8796.20   8897.50    305.50   43%2 o
   5  -8  -7   2970.70   2093.60    168.10   43%2 o
   0   1  -5    857.88   2223.10    320.40   43%2 o
  -1   3  -5   5343.60   6858.90    318.90   43%2 o
  -3   7  -5  10528.00   9742.20    314.40   43%2 o
   3  -5  -4   3635.10   4421.60    256.90   43%2 o
  -4   9  -4    973.12   1114.70    126.80   43%2 o
  -5  11  -4    199.25    229.10     72.40   43%2 o
   5  -9  -3   4213.40   3986.70    196.10   43%2 o
   4  -7  -3   4222.40   4232.20    230.90   43%2 o
   6 -11  -2    777.90    615.90     95.30   43%2 o
  -2   4   0  26125.00  27674.70    484.80   43%2 o
  -3   6   0    574.11    728.70    148.40   43%2 o
  -4   8   0   5877.20   5021.40    232.40   43%2 o
  -5  10   0    441.38    559.60    110.30   43%2 o
   3  -6   1  17056.00  14314.00    349.30   43%2 o
   2  -4   1  15183.00  14780.80    422.30   43%2 o
  -5  10   1    137.14    202.70     95.40   43%2 <
   5 -10   2     34.37     79.60     79.40   43%2 <
   4  -8   2     34.05    -87.80    147.50   43%2 <
   0  -1   5   2366.90   2679.10    371.10   43%2 o
  -3   5   5   6952.40   6400.70    287.60   43%2 o
  -4   7   5   1007.80   1415.50    210.30   43%2 o
  -5   9   5   6177.00   5625.00    224.70   43%2 o
   3  -7   6    223.66    209.50    143.50   43%2 <
   2  -5   6    606.70    466.80    177.90   43%2 <
   4  -9   7    716.04    405.70     94.70   43%2 o
   2  -6  11   2089.70   2258.80    155.00   43%2 o
   1  -4  11   6715.20   6900.70    272.50   43%2 o
   0  -2  11    194.46    617.20    167.50   43%2 o
   3  -8  12     38.67    -36.80     68.90   43%2 <
   2  -6  12     11.17    179.90     99.30   43%2 <
   0  -3  16     56.96    117.80     91.30   43%2 <
  -1  -1  16    494.94   1036.20    125.10   43%2 o
  -2   1  16    357.66    726.40    123.60   43%2 o
   0  -3  17     20.07     71.50     84.50   43%2 <
  -1  -1  17    719.15    534.40    102.90   43%2 o
  -2   7 -14    461.28    180.20     72.80   43%2 <
  -1   4 -10   5364.20   5523.00    236.90   43%2 o
  -2   6 -10    108.97    313.30    104.10   43%2 o
  -3   8 -10     96.90    180.30     77.50   43%2 <
   6 -10  -6    169.91     94.70     82.40   43%2 <
  -4   9  -5    383.67    641.00    106.60   43%2 o
   5  -9  -2    295.17    137.60     87.00   43%2 <
   6 -11  -1     73.08     36.10     64.00   43%2 <
   5 -10   3    102.77    226.60     82.60   43%2 <
   1  -3   6   8217.50   8244.70    321.50   43%2 o
   3  -7   7   9365.20   7264.40    271.60   43%2 o
   4  -9   8    299.36    126.70     87.40   43%2 <
   1  -4  12    908.40    958.40    150.10   43%2 o
   3  -8  13    120.64    268.40     73.30   43%2 o
   1   1 -14    643.24    980.60    156.40   44%2 o
   0   3 -14   2063.60   2076.00    162.30   44%2 o
  -1   5 -14    179.33    158.00     95.20   44%2 <
  -2   7 -14    449.01    180.20     72.80   44%2 <
   5  -7 -12   1744.00   1395.60    162.40   44%2 o
   0   2 -10   1767.10   1613.70    187.80   44%2 o
  -1   4 -10   5615.70   5523.00    236.90   44%2 o
  -2   6 -10    154.61    313.30    104.10   44%2 o
  -3   8 -10    137.99    180.30     77.50   44%2 <
   4  -6  -8   8195.30   8897.50    305.50   44%2 o
   5  -8  -7   2459.80   2093.60    168.10   44%2 o
   6 -10  -6    220.15     94.70     82.40   44%2 <
   0   1  -5   1306.90   2223.10    320.40   44%2 o
  -1   3  -5   5019.00   6858.90    318.90   44%2 o
  -3   7  -5  10331.00   9742.20    314.40   44%2 o
  -4   9  -5    407.90    641.00    106.60   44%2 o
   4  -7  -3   4246.00   4232.20    230.90   44%2 o
   6 -11  -2    696.92    615.90     95.30   44%2 o
   5  -9  -2    180.34    137.60     87.00   44%2 <
   6 -11  -1     78.92     36.10     64.00   44%2 <
  -3   6  -1  13258.00  14683.00    357.00   44%2 o
  -4   8  -1    664.15   1028.10    155.90   44%2 o
  -4   8   0   5028.80   5021.40    232.40   44%2 o
  -5  10   0    446.89    559.60    110.30   44%2 o
   2  -4   1  15150.00  14780.80    422.30   44%2 o
   4  -8   2     57.63    -87.80    147.50   44%2 <
   3  -6   2   4350.20   3853.60    243.00   44%2 o
   5 -10   3    241.84    226.60     82.60   44%2 <
  -4   7   5   2148.90   1415.50    210.30   44%2 o
  -5   9   5   6082.60   5625.00    224.70   44%2 o
   2  -5   6    574.55    466.80    177.90   44%2 <
   1  -3   6   7486.90   8244.70    321.50   44%2 o
   3  -7   7   9157.90   7264.40    271.60   44%2 o
   2  -5   7   8443.30   8296.50    286.70   44%2 o
   4  -9   8    296.40    126.70     87.40   44%2 <
  -4   6  10    186.14    485.60    169.90   44%2 <
  -5   8  10     32.81    264.20    107.00   44%2 <
   1  -4  11   6714.30   6900.70    272.50   44%2 o
   0  -2  11    289.92    617.20    167.50   44%2 o
  -1   0  11   4792.40   3996.00    264.50   44%2 o
   2  -6  12     23.55    179.90     99.30   44%2 <
   1  -4  12    807.49    958.40    150.10   44%2 o
   3  -8  13    153.05    268.40     73.30   44%2 o
   2  -6  13    229.33    279.50     87.90   44%2 o
   0  -3  17     15.87     71.50     84.50   44%2 <
  -1  -1  17    663.58    534.40    102.90   44%2 o
  -2   1  17    270.65    351.90    121.20   44%2 <
  -1   5 -15    594.99    813.20    101.90   44%2 o
  -3   7  -6    196.72    279.60    138.30   44%2 <
  -4   9  -6     50.60    137.50     83.00   44%2 <
  -5  10  -1   1174.30   1354.60    116.50   44%2 o
   4  -8   3    773.12   1246.50    152.60   44%2 o
   5 -10   4     30.22     32.20     53.90   44%2 <
   3  -7   8    391.09    654.80    125.80   44%2 o
   4  -9   9     61.36     68.60     78.20   44%2 <
   0   3 -15     99.52    432.60     92.50   45%2 o
  -1   5 -15    750.92    813.20    101.90   45%2 o
   2  -1 -14   3450.40   4174.10    216.50   45%2 o
   1   1 -14    278.87    980.60    156.40   45%2 o
  -2   6 -11   2248.90   2484.40    154.40   45%2 o
  -3   8 -11    395.31    239.40     79.30   45%2 o
   0   2 -10   1970.10   1613.70    187.80   45%2 o
   4  -6  -7    225.39    703.10    210.80   45%2 o
   5  -8  -6   1688.80    733.80    130.60   45%2 o
  -1   3  -6   9040.70   7274.30    299.80   45%2 o
  -2   5  -6    794.15    445.10    140.30   45%2 o
  -3   7  -6    319.80    279.60    138.30   45%2 <
  -4   9  -6     35.94    137.50     83.00   45%2 <
   6 -10  -5    115.94    387.60     84.90   45%2 o
   3  -5  -3   4532.60   4961.10    248.90   45%2 o
   4  -7  -2     75.30    231.10    157.80   45%2 <
   5  -9  -1   1832.50   2246.00    149.40   45%2 o
  -2   4  -1  12459.00  15721.60    395.90   45%2 o
  -3   6  -1  14988.00  14683.00    357.00   45%2 o
  -4   8  -1    787.93   1028.10    155.90   45%2 o
  -5  10  -1   1049.70   1354.60    116.50   45%2 o
   6 -11   0     60.67    151.60     75.10   45%2 <
   3  -6   2   3525.90   3853.60    243.00   45%2 o
   4  -8   3    846.31   1246.50    152.60   45%2 o
   5 -10   4     28.75     32.20     53.90   45%2 <
  -3   5   4   4390.80   4191.70    223.30   45%2 o
  -4   7   4    753.56   1249.00    188.80   45%2 o
  -5   9   4    112.30     92.10     86.70   45%2 <
   5 -10   5    322.41    187.60     93.20   45%2 <
   1  -3   6   9134.50   8244.70    321.50   45%2 o
   2  -5   7   8238.30   8296.50    286.70   45%2 o
   3  -7   8    637.02    654.80    125.80   45%2 o
   4  -9   9     19.79     68.60     78.20   45%2 <
  -5   8   9    255.62    381.80    108.30   45%2 o
  -1   0  11   4796.90   3996.00    264.50   45%2 o
   1  -4  12    957.74    958.40    150.10   45%2 o
   0  -2  12   6623.00   8223.60    285.90   45%2 o
   2  -6  13    253.32    279.50     87.90   45%2 o
   1  -4  13   2145.30   2863.60    184.90   45%2 o
   2  -6  14    129.77    -34.10     74.40   45%2 <
  -2   1  17    591.16    351.90    121.20   45%2 <
  -1   5 -16     13.57    -34.70     65.80   45%2 <
  -3   8 -12     24.14      2.00     63.10   45%2 <
  -1   4 -11   4524.30   6019.10    234.90   45%2 o
  -3   7  -7   9568.80   8746.00    267.30   45%2 o
  -4   9  -7    715.44    692.30     92.80   45%2 o
  -4   8  -2     82.45    109.60    109.60   45%2 <
  -5  10  -2     14.22     45.60     70.30   45%2 <
   5  -9   0    188.44    207.50     88.20   45%2 <
   6 -11   1    118.43     79.60     70.40   45%2 <
   2  -4   2   4178.20   4986.10    279.30   45%2 o
   3  -6   3  14945.00  13912.50    353.00   45%2 o
  -5   9   3   5479.00   4273.90    199.00   45%2 o
   4  -8   4   1898.90   2295.30    170.70   45%2 o
   5 -10   6    229.08      1.30     82.10   45%2 <
   1  -3   7   7689.50   5610.10    248.40   45%2 o
   2  -5   8    359.47    586.30    140.20   45%2 o
   3  -7   9   3604.30   2258.40    164.50   45%2 o
   4  -9  10     19.10    127.50     54.20   45%2 <
   2  -6  15    120.10    237.60     80.30   45%2 <
   0   3 -16     34.88    116.40     80.90   46%2 <
  -1   5 -16     13.05    -34.70     65.80   46%2 <
   1   1 -15    108.09    235.30     94.20   46%2 <
   0   3 -15     92.35    432.60     92.50   46%2 o
   2  -1 -14   3405.00   4174.10    216.50   46%2 o
  -2   6 -12      6.53     51.80     74.90   46%2 <
  -3   8 -12     22.67      2.00     63.10   46%2 <
   5  -7 -11     66.19    329.30    110.40   46%2 <
   0   2 -11    363.96    268.40    157.50   46%2 <
  -1   4 -11   4431.90   6019.10    234.90   46%2 o
   4  -6  -7    217.57    703.10    210.80   46%2 o
  -2   5  -7   7783.80   7228.10    264.80   46%2 o
  -3   7  -7   9342.80   8746.00    267.30   46%2 o
  -4   9  -7    705.40    692.30     92.80   46%2 o
   5  -8  -6   1667.30    733.80    130.60   46%2 o
  -1   3  -6   8793.90   7274.30    299.80   46%2 o
   6 -10  -5    115.48    387.60     84.90   46%2 o
   6 -10  -4    188.41    202.10     93.20   46%2 <
  -3   6  -2   3290.20   3057.60    205.30   46%2 o
  -4   8  -2     76.19    109.60    109.60   46%2 <
  -5  10  -2     14.41     45.60     70.30   46%2 <
   4  -7  -1   2360.20   3046.40    214.70   46%2 o
  -1   2  -1  21075.00  20443.10    559.80   46%2 o
   5  -9   0    198.90    207.50     88.20   46%2 <
   6 -11   1    124.57     79.60     70.40   46%2 <
   1  -2   1  21379.00  18987.10    570.20   46%2 o
   2  -4   2   4174.70   4986.10    279.30   46%2 o
   3  -6   3  14587.00  13912.50    353.00   46%2 o
  -4   7   3   3546.20   4105.70    218.20   46%2 o
  -5   9   3   5337.10   4273.90    199.00   46%2 o
   4  -8   4   1790.40   2295.30    170.70   46%2 o
  -3   5   4   4273.40   4191.70    223.30   46%2 o
   4  -8   5   2042.50   2274.80    162.90   46%2 o
   5 -10   6    218.12      1.30     82.10   46%2 <
   0  -1   6  16878.00  20492.20    463.40   46%2 o
   1  -3   7   7619.40   5610.10    248.40   46%2 o
   2  -5   8    320.97    586.30    140.20   46%2 o
   3  -7   9   3418.50   2258.40    164.50   46%2 o
  -4   6   9   1744.90   2198.10    210.00   46%2 o
  -5   8   9    261.12    381.80    108.30   46%2 o
   3  -7  10    233.98    383.20    109.60   46%2 o
   0  -2  12   6336.60   8223.60    285.90   46%2 o
   1  -4  13   2119.20   2863.60    184.90   46%2 o
   0  -2  13    220.33    555.20    143.70   46%2 o
   1  -4  14   1402.20   1389.00    130.80   46%2 o
   2  -6  15    115.33    237.60     80.30   46%2 <
  -3   8 -13      3.18    101.20     61.00   46%2 <
  -1   4 -12    587.88    705.70    117.00   46%2 o
  -3   7  -8    370.67    891.30    125.20   46%2 o
  -4   9  -8    223.11    248.30     59.90   46%2 o
  -4   8  -3   1430.10   1784.10    151.70   46%2 o
  -5  10  -3    114.14     47.10     50.10   46%2 <
   5  -9   1     89.26    201.80     86.50   46%2 <
  -5   9   2     57.69    187.30     83.70   46%2 <
  -6  11   2   1031.00   1041.20    107.90   46%2 o
   3  -6   4   4321.50   3976.90    223.90   46%2 o
   2  -5   9   6251.40   6267.70    253.50   46%2 o
   3  -7  11    932.21    635.80    114.60   46%2 o
   1  -4  15    302.93    352.00     95.30   46%2 o
   1   1 -16    764.82   1196.10    123.40   47%2 o
   2  -1 -15    418.44    598.60    124.50   47%2 o
  -2   6 -13    148.93    134.90     79.90   47%2 <
   5  -7 -10    151.91     10.20    132.40   47%2 <
  -4   9  -9     17.06    169.20     73.20   47%2 <
  -1   3  -7   2703.30   4218.90    239.70   47%2 o
   4  -6  -6  17276.00  16953.10    409.00   47%2 o
   0   1  -6  19342.00  18596.30    458.10   47%2 o
   5  -8  -5   1999.60   2016.80    169.60   47%2 o
  -5  10  -4     16.63   -129.60     73.50   47%2 <
   6 -10  -3    119.46     97.20     95.10   47%2 <
  -3   6  -3  17697.00  15635.60    369.90   47%2 o
   3  -5  -2  11899.00  11244.10    341.80   47%2 o
  -2   4  -2   6351.60   5943.80    319.00   47%2 o
  -6  11   1     84.76    299.10     78.60   47%2 o
  -4   7   2    330.66    433.30    151.50   47%2 <
  -3   5   3   7043.10   7395.40    277.80   47%2 o
   4  -8   6    360.37    458.00    112.00   47%2 o
   1  -3   8   1717.40   1625.50    195.80   47%2 o
  -5   8   8    289.69    493.50    105.00   47%2 o
  -2   2  11  14812.00  17065.70    438.00   47%2 o
   0  -2  14   1968.50   2444.90    180.00   47%2 o
   0   3 -17     13.36    109.70     63.10   47%2 <
  -2   6 -14    246.08     -6.40     72.20   47%2 <
  -1   4 -13   2237.40   2438.30    162.50   47%2 o
   0   2 -12   7718.10   7450.10    273.40   47%2 o
  -4   9 -10     62.96    155.50     66.20   47%2 <
  -3   7  -9   2107.70   2045.60    156.00   47%2 o
   6  -9  -8    213.18    310.10     99.20   47%2 o
  -2   5  -8   1159.40   1328.20    156.80   47%2 o
  -5  10  -5    191.45    395.10     79.80   47%2 o
   5  -8  -4   2612.30   3344.60    190.90   47%2 o
  -4   8  -4   2013.60   2302.40    160.50   47%2 o
   6 -10  -2    425.42    525.40    110.80   47%2 o
   4  -7   0   1778.90   1738.40    178.00   47%2 o
  -6  11   0     91.79     39.80     66.50   47%2 <
  -5   9   1    606.04   1262.60    125.40   47%2 o
   5  -9   2   1902.90   1702.80    135.30   47%2 o
   3  -6   5    980.33   1309.30    171.10   47%2 o
  -6  10   6    160.12    295.00     86.30   47%2 o
   4  -8   7    146.82    305.30    110.30   47%2 <
   0  -1   7  46296.00  45332.90    631.20   47%2 o
  -5   8   7   2659.70   2247.70    170.00   47%2 o
   1  -3   9  10255.00   9094.50    288.40   47%2 o
   2  -5  10    491.04   1218.80    165.40   47%2 o
   2  -5  11    336.64   1095.40    158.80   47%2 o
   3  -7  12    723.47   1046.50    115.70   47%2 o
   3  -7  13    181.97    289.30     92.20   47%2 o
  -1   0  13   6355.80   5552.20    254.90   47%2 o
   0  -2  15   2734.40   1922.70    151.10   47%2 o
   1  -4  16    194.98    402.00     95.20   47%2 o
  -3   7 -10    156.19    322.30     90.80   47%2 o
  -2   5  -9   5331.60   5480.10    240.40   47%2 o
  -5  10  -6    124.95    419.60     81.40   47%2 o
  -4   8  -5   2107.50   2021.50    155.00   47%2 o
  -3   6  -4   5817.70   5489.10    239.30   47%2 o
   5  -9   3    308.89    435.90    104.50   47%2 o
   4  -8   8    152.97    290.20     99.40   47%2 <
   3  -7  14     35.51     56.80     72.00   47%2 <
   0   3 -17     17.69    109.70     63.10   48%2 <
   1   1 -16    753.83   1196.10    123.40   48%2 o
   2  -1 -15    423.66    598.60    124.50   48%2 o
  -2   6 -14    243.53     -6.40     72.20   48%2 <
  -1   4 -13   2222.30   2438.30    162.50   48%2 o
   0   2 -12   7308.50   7450.10    273.40   48%2 o
   1   0 -11   3275.30   2970.70    250.60   48%2 o
   5  -7 -10    107.21     10.20    132.40   48%2 <
  -4   9 -10     78.88    155.50     66.20   48%2 <
  -3   7  -9   2060.80   2045.60    156.00   48%2 o
   6  -9  -8    222.81    310.10     99.20   48%2 o
  -2   5  -8    970.90   1328.20    156.80   48%2 o
   4  -6  -6  15375.00  16953.10    409.00   48%2 o
   0   1  -6  22782.00  18596.30    458.10   48%2 o
  -5  10  -5    165.44    395.10     79.80   48%2 o
   5  -8  -4   3086.50   3344.60    190.90   48%2 o
  -4   8  -4   2091.70   2302.40    160.50   48%2 o
   6 -10  -2    429.62    525.40    110.80   48%2 o
   4  -7   0   1836.80   1738.40    178.00   48%2 o
  -6  11   0    102.02     39.80     66.50   48%2 <
  -5   9   1    519.43   1262.60    125.40   48%2 o
   5  -9   2   1783.00   1702.80    135.30   48%2 o
  -4   7   2    240.91    433.30    151.50   48%2 <
  -3   5   3   7653.10   7395.40    277.80   48%2 o
   3  -6   5    952.86   1309.30    171.10   48%2 o
  -6  10   6    188.01    295.00     86.30   48%2 o
   4  -8   7    161.44    305.30    110.30   48%2 <
   0  -1   7  47589.00  45332.90    631.20   48%2 o
  -5   8   7   2663.30   2247.70    170.00   48%2 o
  -4   6   8   8800.90   9043.70    305.70   48%2 o
   1  -3   9   8667.50   9094.50    288.40   48%2 o
   2  -5  10    412.35   1218.80    165.40   48%2 o
   2  -5  11    453.59   1095.40    158.80   48%2 o
   3  -7  12    719.33   1046.50    115.70   48%2 o
   3  -7  13    185.82    289.30     92.20   48%2 o
  -1   0  13   6487.10   5552.20    254.90   48%2 o
   0  -2  14   2084.30   2444.90    180.00   48%2 o
   0  -2  15   2653.60   1922.70    151.10   48%2 o
   1  -4  16    264.62    402.00     95.20   48%2 o
  -2   6 -15    250.16    361.80     83.50   48%2 o
  -3   7 -10    147.19    322.30     90.80   48%2 o
  -2   5  -9   5477.80   5480.10    240.40   48%2 o
  -1   3  -8    796.12    766.90    176.90   48%2 o
  -5  10  -6    138.72    419.60     81.40   48%2 o
  -4   8  -5   2120.30   2021.50    155.00   48%2 o
  -3   6  -4   5886.10   5489.10    239.30   48%2 o
   6 -10  -1    899.95    872.00    109.00   48%2 o
   3  -5  -1   2363.30   3834.40    261.00   48%2 o
  -6  11  -1    333.32    311.60     71.70   48%2 o
  -5   9   0    760.05    770.90    106.90   48%2 o
   4  -7   1   2997.70   2236.50    181.80   48%2 o
  -4   7   1   8828.60  10232.30    288.10   48%2 o
   5  -9   3    221.55    435.90    104.50   48%2 o
   2  -4   4  15431.00  19812.50    449.90   48%2 o
   3  -6   6  13234.00   9933.10    308.40   48%2 o
   4  -8   8    129.24    290.20     99.40   48%2 <
   4  -8   9    463.81    264.60    104.20   48%2 <
   2  -5  12   2240.90   2122.70    155.70   48%2 o
   3  -7  14     41.12     56.80     72.00   48%2 <
   1   1 -17    379.98    397.00     94.00   49%2 o
   2  -1 -15    519.96    598.60    124.50   49%2 o
  -2   6 -15    271.32    361.80     83.50   49%2 o
  -1   4 -14   1110.10   1683.30    152.00   49%2 o
  -2   6 -14    258.96     -6.40     72.20   49%2 <
  -1   4 -13   2201.00   2438.30    162.50   49%2 o
   0   2 -12   6932.10   7450.10    273.40   49%2 o
   1   0 -11   3006.90   2970.70    250.60   49%2 o
   5  -7 -10     99.04     10.20    132.40   49%2 <
  -3   7 -10    154.66    322.30     90.80   49%2 o
  -2   5  -9   5799.70   5480.10    240.40   49%2 o
   6  -9  -8    231.20    310.10     99.20   49%2 o
  -1   3  -8    834.69    766.90    176.90   49%2 o
   4  -6  -6  13920.00  16953.10    409.00   49%2 o
  -5  10  -6    171.86    419.60     81.40   49%2 o
  -4   8  -5   2104.70   2021.50    155.00   49%2 o
   5  -8  -4   3862.30   3344.60    190.90   49%2 o
  -3   6  -4   6001.60   5489.10    239.30   49%2 o
   2  -3  -3  17280.00  16598.50    461.00   49%2 o
   6 -10  -2    396.91    525.40    110.80   49%2 o
   6 -10  -1    939.78    872.00    109.00   49%2 o
   3  -5  -1   3264.10   3834.40    261.00   49%2 o
  -6  11  -1    314.18    311.60     71.70   49%2 o
  -5   9   0    795.68    770.90    106.90   49%2 o
  -6  11   0    146.62     39.80     66.50   49%2 <
   4  -7   1   2912.00   2236.50    181.80   49%2 o
  -4   7   1   9366.80  10232.30    288.10   49%2 o
  -3   5   2  13845.00  14108.50    358.70   49%2 o
   5  -9   3    126.16    435.90    104.50   49%2 o
   5  -9   4    750.84   1269.30    124.60   49%2 o
   2  -4   4  15571.00  19812.50    449.90   49%2 o
   3  -6   6  13238.00   9933.10    308.40   49%2 o
  -6  10   6    216.62    295.00     86.30   49%2 o
   0  -1   7  47621.00  45332.90    631.20   49%2 o
  -5   8   7   2609.40   2247.70    170.00   49%2 o
   4  -8   8     89.45    290.20     99.40   49%2 <
  -4   6   8   8100.00   9043.70    305.70   49%2 o
   4  -8   9    467.39    264.60    104.20   49%2 <
   1  -3   9   7193.70   9094.50    288.40   49%2 o
   1  -3  10   2050.00   1389.10    189.10   49%2 o
   2  -5  11    603.57   1095.40    158.80   49%2 o
   2  -5  12   2240.60   2122.70    155.70   49%2 o
   3  -7  13    194.79    289.30     92.20   49%2 o
  -1   0  13   6104.80   5552.20    254.90   49%2 o
   3  -7  14     40.63     56.80     72.00   49%2 <
   0  -2  15   2353.50   1922.70    151.10   49%2 o
   0  -2  16     50.94    117.10     92.10   49%2 <
  -3   7 -11   1566.50   1036.20    122.20   49%2 o
  -4   8  -6    281.98    334.40    104.70   49%2 o
  -3   6  -5    944.12   1423.70    178.50   49%2 o
   5  -8  -3   3423.10   3643.50    179.30   49%2 o
  -5   9  -1    149.22    260.40     98.40   49%2 <
   4  -7   2   7464.70   5662.30    248.10   49%2 o
  -6  10   5     47.96    105.60     66.90   49%2 <
   3  -6   7   3986.00   4052.50    221.40   49%2 o
   4  -8  10     91.18     85.60     84.80   49%2 <
   2  -5  13    403.39    193.50     96.80   49%2 <
   2  -1 -16    181.19    182.80     97.50   50%2 <
  -1   4 -15    762.80    797.80    116.80   50%2 o
   0   2 -13    231.04    703.40    162.40   50%2 o
  -2   5 -10    451.03    810.10    134.60   50%2 o
   5  -7  -9   1162.60   1245.80    141.00   50%2 o
  -1   3  -9   3728.60   3450.80    218.60   50%2 o
   6  -9  -7    220.12    241.30     80.70   50%2 <
   0   1  -7  28296.00  33165.30    529.40   50%2 o
  -4   8  -7    187.23    753.90    110.90   50%2 o
   4  -6  -5  14376.00  14153.30    360.40   50%2 o
  -3   6  -5    873.87   1423.70    178.50   50%2 o
  -2   4  -4  14964.00  17777.30    427.90   50%2 o
   6 -10   0    391.37    795.50    104.20   50%2 o
   3  -5   0  16873.00  18162.40    416.80   50%2 o
  -4   7   0   1981.10   5969.90    235.70   50%2 o
   4  -7   2   7545.20   5662.30    248.10   50%2 o
  -6  10   4    149.55    186.80     88.80   50%2 <
   5  -9   5     48.72    163.10     82.10   50%2 <
   2  -4   5   1858.20   2321.10    237.80   50%2 o
  -5   8   6   3179.30   2335.60    164.50   50%2 o
  -4   6   7   1614.20   1677.60    203.30   50%2 o
   0  -1   8   1822.40   2089.00    255.90   50%2 o
   4  -8  10     88.02     85.60     84.80   50%2 <
   4  -8  11     48.97    159.40     76.10   50%2 <
   1  -3  11   1074.30   1259.50    177.00   50%2 o
   2  -5  13    379.33    193.50     96.80   50%2 <
   2  -5  14    427.03    284.40    105.60   50%2 <
  -1   0  15    346.67    556.50    108.70   50%2 o
   0  -2  17     50.20    117.40     86.10   50%2 <
   0   2 -14   2750.20   2627.70    157.40   50%2 o
  -3   7 -12    477.85    628.60     93.10   50%2 o
  -2   5 -11    245.21    359.70    112.10   50%2 o
  -4   8  -8    298.44    252.80     94.00   50%2 <
   6  -9  -6     43.03    -10.60     67.30   50%2 <
  -3   6  -6  13782.00  11806.40    312.90   50%2 o
  -5   9  -3     46.46    202.10     84.90   50%2 <
   5  -8  -2   5699.10   3915.40    193.80   50%2 o
  -5   9  -2    439.45    752.00    105.00   50%2 o
  -4   7  -1   3190.80   2328.50    176.30   50%2 o
   6 -10   1     45.13    205.60     77.30   50%2 <
  -3   5   1   7823.70   7181.70    269.40   50%2 o
   6 -10   2    326.41    291.50     80.00   50%2 o
   4  -7   3     62.15     20.40    139.40   50%2 <
  -6  10   3    120.29    204.40     76.00   50%2 <
  -5   8   5   1079.40   1975.50    147.80   50%2 o
   5  -9   6    288.89     61.20     83.60   50%2 <
   5  -9   7    104.09    139.00     83.80   50%2 <
   3  -6   8    719.97   1224.50    147.70   50%2 o
   3  -6   9   1175.40    773.90    135.70   50%2 o
   4  -8  12    428.02    505.70     84.30   50%2 o
   1  -3  12    625.22   1268.10    147.80   50%2 o
   2  -5  15     87.43    230.30     67.80   50%2 o
  -1   4 -16    214.71    178.90     60.00   50%2 <
  -3   7 -13    278.81    375.20     59.60   50%2 o
   5  -8  -1   1564.40   1718.90    129.40   50%2 o
   4  -7   4   6105.90   5061.40    216.90   50%2 o
   2  -4   6   2981.70   2331.40    163.70   50%2 o
   1   1 -17    306.97    397.00     94.00   51%2 o
   2  -1 -16    190.31    182.80     97.50   51%2 <
  -1   4 -15    736.09    797.80    116.80   51%2 o
   0   2 -13    243.09    703.40    162.40   51%2 o
  -3   7 -12    453.42    628.60     93.10   51%2 o
  -2   5 -11    238.71    359.70    112.10   51%2 o
  -3   7 -11   1648.60   1036.20    122.20   51%2 o
  -2   5 -10    463.93    810.10    134.60   51%2 o
   5  -7  -9   1136.60   1245.80    141.00   51%2 o
  -1   3  -9   3672.50   3450.80    218.60   51%2 o
  -4   8  -8    297.24    252.80     94.00   51%2 <
   6  -9  -7    219.77    241.30     80.70   51%2 <
   0   1  -7  30073.00  33165.30    529.40   51%2 o
  -4   8  -7    180.72    753.90    110.90   51%2 o
   6  -9  -6     46.53    -10.60     67.30   51%2 <
  -3   6  -6  13666.00  11806.40    312.90   51%2 o
  -4   8  -6    278.74    334.40    104.70   51%2 o
   4  -6  -5  14462.00  14153.30    360.40   51%2 o
  -3   6  -5    897.11   1423.70    178.50   51%2 o
  -2   4  -4  14761.00  17777.30    427.90   51%2 o
   5  -8  -3   4694.30   3643.50    179.30   51%2 o
   5  -8  -2   5576.20   3915.40    193.80   51%2 o
  -5   9  -2    426.24    752.00    105.00   51%2 o
  -4   7  -1   3075.50   2328.50    176.30   51%2 o
  -5   9  -1    126.62    260.40     98.40   51%2 <
   6 -10   0    389.53    795.50    104.20   51%2 o
   3  -5   0  16664.00  18162.40    416.80   51%2 o
  -4   7   0   1879.80   5969.90    235.70   51%2 o
   6 -10   1     44.26    205.60     77.30   51%2 <
  -3   5   1   7632.30   7181.70    269.40   51%2 o
   6 -10   2    318.98    291.50     80.00   51%2 o
   4  -7   2   7440.30   5662.30    248.10   51%2 o
   4  -7   3     56.95     20.40    139.40   51%2 <
  -6  10   3    112.05    204.40     76.00   51%2 <
  -6  10   4    151.81    186.80     88.80   51%2 <
   5  -9   5     47.26    163.10     82.10   51%2 <
   2  -4   5   1816.70   2321.10    237.80   51%2 o
  -5   8   5   1016.00   1975.50    147.80   51%2 o
  -6  10   5     46.78    105.60     66.90   51%2 <
   5  -9   6    281.89     61.20     83.60   51%2 <
  -5   8   6   3030.20   2335.60    164.50   51%2 o
   5  -9   7     90.16    139.00     83.80   51%2 <
   3  -6   7   3869.00   4052.50    221.40   51%2 o
  -4   6   7   1671.30   1677.60    203.30   51%2 o
   3  -6   8    732.35   1224.50    147.70   51%2 o
   0  -1   8   1805.20   2089.00    255.90   51%2 o
   3  -6   9   1148.00    773.90    135.70   51%2 o
   4  -8  10     91.22     85.60     84.80   51%2 <
   1  -3  10   1832.90   1389.10    189.10   51%2 o
   4  -8  11     53.73    159.40     76.10   51%2 <
   1  -3  11   1099.80   1259.50    177.00   51%2 o
   4  -8  12    430.48    505.70     84.30   51%2 o
   2  -5  13    365.39    193.50     96.80   51%2 <
   2  -5  14    418.48    284.40    105.60   51%2 <
   2  -5  15     82.89    230.30     67.80   51%2 o
  -1   0  15    350.23    556.50    108.70   51%2 o
   0  -2  17     51.20    117.40     86.10   51%2 <
  -3   7 -13    265.03    375.20     59.60   51%2 o
   2  -1 -17    349.31    317.90     91.50   52%2 o
   0   2 -15    192.17     19.60     81.30   52%2 <
   1   0 -13   5916.30   8192.80    281.60   52%2 o
   5  -7  -8    166.07    -34.90    102.50   52%2 <
   0   1  -8    773.86    286.30    194.90   52%2 <
   6  -9  -5    390.55    113.50     72.10   52%2 <
  -1   2  -3   6065.40   1175.80    316.10   52%2 o
   5  -8   0    403.26     10.40    101.80   52%2 <
  -3   5   0  14129.00    739.10    179.90   52%2 o
   6 -10   4      4.55    -12.70     45.30   52%2 <
   4  -7   5   2156.10    111.20     99.90   52%2 <
  -4   6   6  14575.00   2120.00    224.10   52%2 o
   2  -4   7   3380.60      6.90    132.30   52%2 <
   3  -6  11     96.25     18.00     58.10   52%2 <
  -2   2  13   1760.80   2041.20    214.90   52%2 o
  -1   0  17     97.64    -29.10     82.10   52%2 <
   0   2 -16      8.68     -2.70     68.30   52%2 <
  -2   5 -14    440.13    617.40     99.40   52%2 o
  -2   5 -13    239.95    137.70     58.30   52%2 <
  -1   3 -11    524.90   1022.60    142.60   52%2 o
  -4   8 -11    125.15    165.40     52.40   52%2 o
  -4   8 -10     65.39     -9.60     53.60   52%2 <
  -3   6  -9    834.72   1132.40    130.90   52%2 o
  -3   6  -8    484.67     96.80     91.60   52%2 <
  -5   9  -7    117.48    269.40     82.70   52%2 o
  -2   4  -6    476.18    630.00    123.10   52%2 o
  -5   9  -6    167.60    147.00     64.40   52%2 <
  -5   9  -5     75.23    113.00     51.50   52%2 <
   6  -9  -4     57.27    -28.20     75.60   52%2 <
  -4   7  -4   5099.70   7441.70    250.50   52%2 o
   6  -9  -3    234.69    229.70     84.70   52%2 <
   4  -6  -3    624.56    921.60    145.10   52%2 o
  -4   7  -3    118.79    -19.20     95.20   52%2 <
  -3   5  -1   3498.40   3574.50    224.60   52%2 o
  -6  10  -1     35.59     41.60     71.10   52%2 <
  -6  10   0     60.55    162.70     51.70   52%2 o
   5  -8   1   2260.10   3466.20    173.90   52%2 o
  -6  10   1    265.82     15.70     46.60   52%2 <
   5  -8   2   1331.70   1208.70    142.20   52%2 o
   3  -5   2   2493.20   2717.30    205.00   52%2 o
  -5   8   2   2143.60   2976.00    175.30   52%2 o
  -5   8   3    422.06    335.60     72.90   52%2 o
   1  -2   4   3180.30   6359.30    348.30   52%2 o
  -4   6   5  13277.00  16918.20    385.40   52%2 o
   4  -7   6     54.25     91.70     80.90   52%2 <
   4  -7   7    175.87    186.50    113.80   52%2 <
   4  -7   8    596.73    759.30    119.00   52%2 o
   2  -4   8    379.93    378.20    146.60   52%2 <
   2  -4   9   8039.10  12027.40    320.50   52%2 o
   0  -1  10   2307.50   4206.10    212.80   52%2 o
   3  -6  12    460.93    210.10     68.70   52%2 o
   3  -6  13     73.24    -16.40     59.50   52%2 <
   3  -6  14     33.01    236.40     78.90   52%2 <
   1  -3  14    406.16    181.50     73.80   52%2 <
   1  -3  15   1165.90   1222.30    125.80   52%2 o
   1  -3  16    111.65    118.90     81.40   52%2 <
   0   2 -17     42.77    212.90     77.80   53%2 <
  -2   5 -15     50.09     32.10     85.80   53%2 <
  -1   3 -12    691.00   1224.70    162.60   53%2 o
  -3   6 -10   1088.60   1553.50    138.10   53%2 o
   0   1  -9   2586.50   2815.20    207.80   53%2 o
   5  -7  -7   4744.70   3910.70    208.80   53%2 o
  -2   4  -7   3956.30   3240.20    197.90   53%2 o
  -5   9  -7    148.17    269.40     82.70   53%2 o
   3  -4  -6   1419.40   2766.10    285.90   53%2 o
  -4   7  -5   3209.70   3288.90    211.80   53%2 o
  -1   2  -4   7034.10  10121.50    370.90   53%2 o
   6  -9  -2   1224.40    899.80    134.20   53%2 o
   4  -6  -2   1456.90   1189.60    176.90   53%2 o
  -6  10  -2    224.16    364.20     80.70   53%2 o
   2  -3  -1    162.26    369.70    319.30   53%2 <
  -5   8   1   1599.90   1667.00    152.60   53%2 o
  -2   3   2  73959.00  58450.70    728.50   53%2 o
   5  -8   3    152.61     43.60     95.30   53%2 <
   3  -5   3   2868.80   3599.90    207.10   53%2 o
  -4   6   4   2217.80   3640.80    236.30   53%2 o
   4  -7   8    779.73    759.30    119.00   53%2 o
  -6   9   8    310.58    594.00     93.50   53%2 o
   2  -4   9  10520.00  12027.40    320.50   53%2 o
   2  -4  10  12480.00  14809.40    373.70   53%2 o
   0  -1  11   2112.00   2324.90    199.00   53%2 o
  -5   7  11      9.55    155.00    112.70   53%2 <
   0  -1  12   2136.00   2240.20    223.50   53%2 o
  -5   7  12   2057.50   1997.50    169.90   53%2 o
  -2   2  14     76.88    232.90    142.10   53%2 <
   1  -3  16     98.55    118.90     81.40   53%2 <
   1  -3  17    171.88    349.20     87.90   53%2 o
  -1   3 -13   1445.70   1517.10    154.50   53%2 o
  -3   6 -11    138.43    146.00     85.00   53%2 <
  -2   4  -8    647.82    377.30    131.70   53%2 <
  -5   9  -8     44.77     95.90     52.60   53%2 <
   5  -7  -6   7193.80   6910.40    260.70   53%2 o
  -4   7  -6     61.03     51.90    111.60   53%2 <
  -6  10  -3    248.35    109.80     67.50   53%2 <
  -3   5  -2   3064.70   3320.70    205.30   53%2 o
   6  -9  -1   2699.50   3076.40    174.70   53%2 o
   4  -6  -1   1554.50   1001.80    191.60   53%2 o
  -5   8   0    538.54    435.90    109.60   53%2 o
   5  -8   4    133.08    198.60     97.80   53%2 <
   3  -5   4    289.92     55.80    141.90   53%2 <
   1  -2   5  49106.00  48913.40    641.10   53%2 o
  -6   9   7     64.04    -28.90     76.50   53%2 <
   4  -7   9      5.80    -66.00     60.50   53%2 <
   4  -7  10     66.69     54.60     78.90   53%2 <
   4  -7  11     66.98    174.00     76.10   53%2 <
   2  -4  11   9555.90   8852.70    291.10   53%2 o
  -3   6 -12    467.05    499.30     93.50   53%2 o
  -6  10  -4      7.28      3.20     56.00   53%2 <
  -3   5  -3   3272.70   4270.60    217.90   53%2 o
   6  -9   0   1207.10    981.20    117.00   53%2 o
   5  -8   5    725.32    829.60    113.90   53%2 o
   3  -5   5   1321.70   2013.30    177.20   53%2 o
  -6   9   6     35.98    134.00     58.40   53%2 <
   4  -7  12     74.00      1.30     76.90   53%2 <
   2  -4  12   3510.40   4018.20    212.90   53%2 o
   0   2 -17     48.28    212.90     77.80   54%2 <
  -2   5 -15     56.47     32.10     85.80   54%2 <
  -1   3 -13   1559.90   1517.10    154.50   54%2 o
  -1   3 -12    736.77   1224.70    162.60   54%2 o
  -3   6 -11    150.15    146.00     85.00   54%2 <
   6  -8 -10     13.39    159.50     88.70   54%2 <
  -3   6 -10   1180.60   1553.50    138.10   54%2 o
   0   1  -9   2805.40   2815.20    207.80   54%2 o
  -2   4  -8    697.97    377.30    131.70   54%2 <
  -5   9  -8     45.55     95.90     52.60   54%2 <
   5  -7  -6   7893.30   6910.40    260.70   54%2 o
   3  -4  -6   1562.50   2766.10    285.90   54%2 o
  -4   7  -6     65.78     51.90    111.60   54%2 <
  -4   7  -5   3429.60   3288.90    211.80   54%2 o
  -1   2  -4   7573.10  10121.50    370.90   54%2 o
  -6  10  -3    266.36    109.80     67.50   54%2 <
   6  -9  -2   1314.80    899.80    134.20   54%2 o
   4  -6  -2   1581.50   1189.60    176.90   54%2 o
  -3   5  -2   3311.50   3320.70    205.30   54%2 o
  -6  10  -2    242.30    364.20     80.70   54%2 o
   6  -9  -1   2889.70   3076.40    174.70   54%2 o
   4  -6  -1   1666.40   1001.80    191.60   54%2 o
   2  -3  -1    171.62    369.70    319.30   54%2 <
  -5   8   0    581.13    435.90    109.60   54%2 o
  -5   8   1   1731.60   1667.00    152.60   54%2 o
   5  -8   3    165.13     43.60     95.30   54%2 <
   5  -8   4    144.10    198.60     97.80   54%2 <
   3  -5   4    312.09     55.80    141.90   54%2 <
  -4   6   4   2383.50   3640.80    236.30   54%2 o
   1  -2   5  52954.00  48913.40    641.10   54%2 o
  -6   9   7     69.24    -28.90     76.50   54%2 <
  -6   9   8    328.85    594.00     93.50   54%2 o
   4  -7   9      6.25    -66.00     60.50   54%2 <
   4  -7  10     70.88     54.60     78.90   54%2 <
   2  -4  10  13447.00  14809.40    373.70   54%2 o
   4  -7  11     71.49    174.00     76.10   54%2 <
   2  -4  11  10310.00   8852.70    291.10   54%2 o
   0  -1  11   2276.70   2324.90    199.00   54%2 o
  -5   7  11      9.97    155.00    112.70   54%2 <
   0  -1  12   2265.10   2240.20    223.50   54%2 o
   0  -1  13   5437.70   4832.70    252.50   54%2 o
  -2   2  14     76.48    232.90    142.10   54%2 <
   1  -3  17    184.96    349.20     87.90   54%2 o
  -3   6 -12    513.09    499.30     93.50   54%2 o
  -4   7  -7    228.51    192.70    104.10   54%2 <
  -6  10  -4      8.01      3.20     56.00   54%2 <
  -3   5  -3   3543.80   4270.60    217.90   54%2 o
  -5   8  -1   5050.90   4895.30    202.50   54%2 o
   6  -9   0   1276.20    981.20    117.00   54%2 o
  -4   6   3    474.55    850.20    162.30   54%2 o
   5  -8   5    794.13    829.60    113.90   54%2 o
   3  -5   5   1411.90   2013.30    177.20   54%2 o
   5  -8   6     12.98    151.20     89.40   54%2 <
  -6   9   6     39.40    134.00     58.40   54%2 <
   4  -7  12     83.28      1.30     76.90   54%2 <
   2  -4  12   3789.90   4018.20    212.90   54%2 o
   4  -7  13    101.57     81.20     72.10   54%2 <
  -1   2  -6  49670.00  45935.20    625.20   55%2 o
   3  -4  -5  50409.00  51482.70    638.80   55%2 o
  -3   5  -5   1728.80   1805.30    197.00   55%2 o
  -5   8  -5    710.17    784.00    102.60   55%2 o
   5  -7  -4     88.91    413.40    141.20   55%2 <
  -5   8  -4    238.37    367.30     93.00   55%2 o
   2  -3   0     52.66   -408.30    319.20   55%2 <
  -2   3   0    245.03    753.10    324.10   55%2 <
  -4   6   1    173.04    640.10    146.80   55%2 o
   4  -6   2   4429.90   4815.10    226.30   55%2 o
  -6   9   2   1300.10    881.10    104.80   55%2 o
  -6   9   3    240.82    127.00     94.20   55%2 <
   6  -9   4    137.72    296.90     77.00   55%2 o
   6  -9   5      8.55     76.20     72.90   55%2 <
   1  -2   7   5993.40   6733.60    300.80   55%2 o
   1  -2   8  29378.00  35901.20    518.30   55%2 o
   3  -5   9     75.56    413.00    134.30   55%2 o
  -5   7   9   2023.20   1281.30    151.80   55%2 o
  -5   7  10    810.80    459.10    115.00   55%2 o
   0  -1  15     85.85     49.60     95.40   55%2 <
  -2   2  15    199.99    468.80    140.20   55%2 o
   0  -1  16     96.01    -94.10     89.40   55%2 <
  -2   2  16     23.20    161.80    126.10   55%2 <
   0  -1  17    467.43    376.40    101.50   55%2 o
  -2   2  17    285.29    -15.10    128.90   55%2 <
   1   0 -15    537.47    520.70    123.00   55%2 o
  -3   6 -13    106.57    241.60     71.00   55%2 o
   4  -5 -10   8641.90   9595.20    323.80   55%2 o
   6  -8  -9     33.00    259.50     97.70   55%2 <
   5  -7  -5   1668.70   1070.80    153.20   55%2 o
  -1   2  -5  56939.00  49422.40    642.00   55%2 o
  -3   5  -4    333.27    140.60    163.90   55%2 <
  -5   8  -2   2784.60   1659.40    154.50   55%2 o
   4  -6   0  14703.00  15165.90    374.30   55%2 o
   6  -9   1    859.46   1085.50    110.30   55%2 o
  -2   3   1    212.85   -318.60    331.00   55%2 <
  -4   6   2   1355.50   1411.40    171.80   55%2 o
  -6   9   5    404.99    374.70     96.20   55%2 o
   3  -5   6   3361.00   3070.30    198.30   55%2 o
   5  -8   7    133.95    164.30     90.30   55%2 <
   2  -4  14   3039.20   2584.80    164.10   55%2 o
   0  -1  14     84.54    414.50    113.70   55%2 o
  -1   3 -15   1860.60   1501.00    146.90   55%2 o
  -3   6 -14     47.79    251.50     70.70   55%2 o
   0   1 -11   1446.80   1693.30    197.20   55%2 o
  -2   4 -10  13987.00  13528.40    359.00   55%2 o
  -4   7  -9      7.51     77.50     74.00   55%2 <
   6  -8  -8    391.91    865.80    121.70   55%2 o
  -4   7  -8   1044.60    954.80    117.50   55%2 o
  -5   8  -3     60.16    219.70     85.00   55%2 <
   4  -6   1     25.00     56.90    145.10   55%2 <
   6  -9   2     21.64    151.50     76.90   55%2 <
   6  -9   3    124.64     24.80     74.80   55%2 <
  -6   9   4    183.60    212.00     72.00   55%2 <
   3  -5   7   1746.60   1288.40    165.90   55%2 o
   5  -8   8     19.38     -5.00     80.60   55%2 <
   3  -5   8   1760.90   1606.10    169.80   55%2 o
   5  -8   9     53.58   -195.80     80.40   55%2 <
   2  -4  15    477.22    574.00     97.50   55%2 o
   2  -4  16     12.67     48.80     67.20   55%2 <
  -1   3 -16    103.64    286.70     77.90   55%2 o
  -2   4 -11   7203.10   8402.60    275.90   55%2 o
  -4   7 -10    126.56     23.10     71.10   55%2 <
   5  -8  10     43.60    150.90     52.90   55%2 <
  -1   2  -6  52276.00  45935.20    625.20   56%2 o
  -3   5  -6   2981.10   3419.10    195.80   56%2 o
   3  -4  -5  48389.00  51482.70    638.80   56%2 o
  -3   5  -5   1388.80   1805.30    197.00   56%2 o
  -5   8  -5    784.62    784.00    102.60   56%2 o
   5  -7  -4    628.75    413.40    141.20   56%2 <
  -5   8  -4    246.49    367.30     93.00   56%2 o
   5  -7  -3    582.73    527.40    125.00   56%2 o
   2  -3   0     69.46   -408.30    319.20   56%2 <
  -2   3   0    240.29    753.10    324.10   56%2 <
   2  -3   1  29761.00  28417.30    521.10   56%2 o
  -4   6   1    651.32    640.10    146.80   56%2 o
   4  -6   2   6242.90   4815.10    226.30   56%2 o
  -6   9   2   1027.20    881.10    104.80   56%2 o
   4  -6   3   1732.30   1965.20    170.40   56%2 o
  -6   9   3    242.87    127.00     94.20   56%2 <
   6  -9   4    130.98    296.90     77.00   56%2 o
   6  -9   5      5.27     76.20     72.90   56%2 <
   6  -9   6     83.28     46.30     78.60   56%2 <
   1  -2   7   5858.40   6733.60    300.80   56%2 o
   1  -2   8  33208.00  35901.20    518.30   56%2 o
   3  -5   9    226.45    413.00    134.30   56%2 o
  -5   7   9   2147.40   1281.30    151.80   56%2 o
   3  -5  10    939.92   1482.40    143.00   56%2 o
  -5   7  10    402.05    459.10    115.00   56%2 o
   0  -1  15     61.10     49.60     95.40   56%2 <
  -2   2  15    457.80    468.80    140.20   56%2 o
   0  -1  16     87.55    -94.10     89.40   56%2 <
  -2   2  16     20.10    161.80    126.10   56%2 <
   0  -1  17    357.04    376.40    101.50   56%2 o
   3  -3 -15    770.08    698.50    172.20   56%2 o
   4  -5 -10   8241.50   9595.20    323.80   56%2 o
   6  -8  -8    362.27    865.80    121.70   56%2 o
   1   0 -15    439.23    520.70    123.00   56%2 o
  -1   3 -15   1728.80   1501.00    146.90   56%2 o
  -3   6 -14     51.36    251.50     70.70   56%2 o
  -3   6 -13    131.17    241.60     71.00   56%2 o
   0   1 -11   1769.00   1693.30    197.20   56%2 o
  -2   4 -10  13403.00  13528.40    359.00   56%2 o
   6  -8  -9     30.06    259.50     97.70   56%2 <
  -4   7  -9      2.94     77.50     74.00   56%2 <
  -4   7  -8   1106.50    954.80    117.50   56%2 o
   5  -7  -5    249.99   1070.80    153.20   56%2 o
  -1   2  -5  56619.00  49422.40    642.00   56%2 o
  -3   5  -4    277.38    140.60    163.90   56%2 <
  -5   8  -3     24.56    219.70     85.00   56%2 <
  -5   8  -2   1537.20   1659.40    154.50   56%2 o
   4  -6   1     35.78     56.90    145.10   56%2 <
   6  -9   2     37.69    151.50     76.90   56%2 <
  -4   6   2   1350.80   1411.40    171.80   56%2 o
   6  -9   3    115.36     24.80     74.80   56%2 <
  -6   9   4    330.95    212.00     72.00   56%2 <
   3  -5   7   1717.90   1288.40    165.90   56%2 o
   5  -8   8     26.44     -5.00     80.60   56%2 <
   3  -5   8   1933.70   1606.10    169.80   56%2 o
   5  -8   9     54.52   -195.80     80.40   56%2 <
   2  -4  14   2814.80   2584.80    164.10   56%2 o
   0  -1  14     41.58    414.50    113.70   56%2 o
   2  -4  15    520.36    574.00     97.50   56%2 o
   2  -4  16     22.64     48.80     67.20   56%2 <
  -1   3 -16     60.43    286.70     77.90   56%2 o
  -2   4 -11   6229.70   8402.60    275.90   56%2 o
  -4   7 -11    118.59    278.40     70.40   56%2 o
  -4   7 -10    108.58     23.10     71.10   56%2 <
   5  -8  10     34.53    150.90     52.90   56%2 <
  -3   5  -6   2949.10   3419.10    195.80   57%2 o
  -5   8  -6     20.11    162.40     78.10   57%2 <
  -5   8  -5    788.29    784.00    102.60   57%2 o
   3  -4  -4   3176.60   2949.80    318.00   57%2 o
   5  -7  -2     29.02     -3.10    117.60   57%2 <
   5  -7  -1   4931.50   4295.60    225.00   57%2 o
  -2   3  -1  32098.00  28817.50    524.70   57%2 o
  -4   6  -1     31.12    148.80    137.80   57%2 <
  -6   9  -1     39.11    108.20     72.40   57%2 <
  -4   6   0  14765.00  16300.10    370.60   57%2 o
  -6   9   0    832.78   1158.50    113.10   57%2 o
   2  -3   1  30209.00  28417.30    521.10   57%2 o
  -6   9   1   4361.40   4056.10    200.10   57%2 o
   2  -3   2  12281.00  16439.30    423.80   57%2 o
   4  -6   3   1917.10   1965.20    170.40   57%2 o
   4  -6   4    717.96    672.00    154.80   57%2 o
   4  -6   5   3569.10   3506.60    212.90   57%2 o
   6  -9   6     72.86     46.30     78.60   57%2 <
  -5   7   6   6985.70   6184.40    243.70   57%2 o
  -5   7   7   4309.70   4716.60    222.60   57%2 o
   1  -2   8  34862.00  35901.20    518.30   57%2 o
  -5   7   8    223.01    291.10    109.90   57%2 <
   1  -2   9   3013.40   2860.80    226.60   57%2 o
   3  -5  10    867.27   1482.40    143.00   57%2 o
   1  -2  10  21201.00  22098.80    431.00   57%2 o
   3  -5  11     74.79    203.90     96.60   57%2 <
   1  -2  11   1284.50   2354.30    215.20   57%2 o
   3  -5  12    320.80    329.40     96.90   57%2 o
   3  -5  13     20.09     54.20     80.70   57%2 <
   3  -5  14    594.79    717.90    101.70   57%2 o
  -2   2  17    262.40    -15.10    128.90   57%2 <
   1   0 -17     73.94    364.60     96.10   57%2 o
  -1   3 -17    205.74    359.00     80.60   57%2 o
  -2   4 -14   1704.30   1755.40    139.70   57%2 o
   0   1 -13   5028.10   4300.80    239.20   57%2 o
  -2   4 -13    211.36    179.70     99.10   57%2 <
  -4   7 -13    113.99    228.00     64.60   57%2 o
   0   1 -12   1744.20   1811.50    209.40   57%2 o
  -2   4 -12   4223.80   3678.30    221.40   57%2 o
  -4   7 -12     95.00     88.30     73.90   57%2 <
   2  -2 -11   9265.90   9993.30    421.10   57%2 o
   4  -5  -9   1015.40    860.10    226.60   57%2 o
  -5   8  -9    132.51    117.80     66.80   57%2 <
  -3   5  -8   2332.40   2399.20    198.30   57%2 o
  -5   8  -8     31.80     20.70     50.80   57%2 <
   6  -8  -7    164.90    220.20     94.80   57%2 <
  -1   2  -7   6724.80   5082.10    281.00   57%2 o
  -3   5  -7   1506.80   1085.70    155.90   57%2 o
  -5   8  -7    122.21    414.80     87.00   57%2 o
   6  -8  -6   1043.70    575.40    117.80   57%2 o
  -4   6  -2   5096.90   4622.40    219.00   57%2 o
  -6   9  -2     51.74    263.30     76.20   57%2 o
   5  -7   0    652.56    991.90    149.60   57%2 o
   4  -6   6   2617.60   2757.10    193.80   57%2 o
   4  -6   7   7836.50   6770.40    260.00   57%2 o
   3  -5  15     55.72     57.00     73.60   57%2 <
  -4   7 -11    115.96    278.40     70.40   57%2 o
   3  -4  -4   2540.50   2949.80    318.00   58%2 o
   5  -7  -1   3809.30   4295.60    225.00   58%2 o
  -2   3  -1  35388.00  28817.50    524.70   58%2 o
  -4   6  -1     63.33    148.80    137.80   58%2 <
  -6   9  -1     70.79    108.20     72.40   58%2 <
  -6   9   0   1128.10   1158.50    113.10   58%2 o
   2  -3   2  14374.00  16439.30    423.80   58%2 o
   4  -6   4    527.02    672.00    154.80   58%2 o
   4  -6   5   3210.60   3506.60    212.90   58%2 o
  -3   4   6   2483.50   2740.30    276.50   58%2 o
  -5   7   6   6416.70   6184.40    243.70   58%2 o
   1  -2   9   3240.50   2860.80    226.60   58%2 o
   1  -2  10  19722.00  22098.80    431.00   58%2 o
   1  -2  11   1122.50   2354.30    215.20   58%2 o
   3  -5  12    333.61    329.40     96.90   58%2 o
   3  -5  13     49.03     54.20     80.70   58%2 <
   3  -5  14    611.24    717.90    101.70   58%2 o
  -2   2  17    315.33    -15.10    128.90   58%2 <
   1   0 -17    284.60    364.60     96.10   58%2 o
  -1   3 -17    238.55    359.00     80.60   58%2 o
  -2   4 -14   1720.80   1755.40    139.70   58%2 o
   5  -6 -13    627.27   1052.80    175.60   58%2 o
   0   1 -13   5298.90   4300.80    239.20   58%2 o
  -2   4 -13    289.97    179.70     99.10   58%2 <
  -4   7 -13     61.79    228.00     64.60   58%2 o
   0   1 -12   1654.40   1811.50    209.40   58%2 o
  -4   7 -12     90.41     88.30     73.90   58%2 <
   2  -2 -11   8747.60   9993.30    421.10   58%2 o
   4  -5  -9    249.31    860.10    226.60   58%2 o
  -3   5  -9    756.74   1656.50    156.70   58%2 o
  -5   8  -9     18.02    117.80     66.80   58%2 <
  -1   2  -8  24988.00  31363.10    498.60   58%2 o
  -3   5  -8   2261.80   2399.20    198.30   58%2 o
  -5   8  -8     61.95     20.70     50.80   58%2 <
  -1   2  -7   4405.40   5082.10    281.00   58%2 o
  -3   5  -7   1108.90   1085.70    155.90   58%2 o
  -5   8  -7    191.58    414.80     87.00   58%2 o
   6  -8  -6    525.75    575.40    117.80   58%2 o
   6  -8  -5    508.96    697.00    103.30   58%2 o
   6  -8  -4   4409.30   4592.60    207.90   58%2 o
   3  -4  -3  83091.00  66738.70    769.60   58%2 o
  -4   6  -3   1607.00   1374.90    153.00   58%2 o
  -6   9  -3     54.69    -86.90     66.30   58%2 <
  -2   3  -2  11330.00  14233.40    410.60   58%2 o
  -4   6  -2   4327.90   4622.40    219.00   58%2 o
  -6   9  -2     64.58    263.30     76.20   58%2 o
   5  -7   0    666.29    991.90    149.60   58%2 o
   5  -7   1    313.80    273.30    125.10   58%2 <
   2  -3   3  14436.00  14055.10    369.70   58%2 o
  -5   7   4     52.72     34.80    122.40   58%2 <
  -5   7   5    697.02   1028.50    148.40   58%2 o
   4  -6   6   2471.80   2757.10    193.80   58%2 o
   4  -6   7   7795.50   6770.40    260.00   58%2 o
   4  -6   8     47.82     93.40    113.60   58%2 <
   4  -6   9   2718.00    987.30    137.90   58%2 o
   1  -2  12  17612.00  17716.00    413.00   58%2 o
   3  -5  15     22.09     57.00     73.60   58%2 <
  -6   9  -4    182.76    208.00     54.10   58%2 o
   1   0 -17    289.45    364.60     96.10   59%2 o
  -2   4 -15    322.60    524.70    107.80   59%2 o
   0   1 -14     47.63    209.80    105.60   59%2 <
  -2   4 -14   1734.20   1755.40    139.70   59%2 o
   5  -6 -13    683.66   1052.80    175.60   59%2 o
   0   1 -13   5359.80   4300.80    239.20   59%2 o
  -1   2  -9   3315.60   3660.10    244.70   59%2 o
  -3   5  -9    766.19   1656.50    156.70   59%2 o
  -5   8  -9     17.73    117.80     66.80   59%2 <
   4  -5  -8   8034.20   6438.00    332.80   59%2 o
  -1   2  -8  25238.00  31363.10    498.60   59%2 o
   6  -8  -5    481.11    697.00    103.30   59%2 o
   6  -8  -4   4340.80   4592.60    207.90   59%2 o
   3  -4  -3  83731.00  66738.70    769.60   59%2 o
  -4   6  -3   1630.10   1374.90    153.00   59%2 o
  -6   9  -3     57.26    -86.90     66.30   59%2 <
  -2   3  -2  11417.00  14233.40    410.60   59%2 o
  -4   6  -2   4352.90   4622.40    219.00   59%2 o
  -6   9  -2     63.94    263.30     76.20   59%2 o
   5  -7   0    646.97    991.90    149.60   59%2 o
   5  -7   1    312.99    273.30    125.10   59%2 <
   2  -3   3  14550.00  14055.10    369.70   59%2 o
   2  -3   4   2647.80   2806.10    288.00   59%2 o
  -5   7   4     53.20     34.80    122.40   59%2 <
  -3   4   5  46727.00  51563.00    653.10   59%2 o
  -5   7   5    668.04   1028.50    148.40   59%2 o
   4  -6   6   2466.00   2757.10    193.80   59%2 o
   4  -6   7   7781.90   6770.40    260.00   59%2 o
   4  -6   8     50.00     93.40    113.60   59%2 <
  -1   1   8  15347.00  17187.00    455.10   59%2 o
   4  -6   9   2737.80    987.30    137.90   59%2 o
   1  -2  11   1129.30   2354.30    215.20   59%2 o
   1  -2  12  17735.00  17716.00    413.00   59%2 o
   1  -2  13     25.51    216.90    146.10   59%2 <
   1  -2  14   2535.20   2440.40    180.60   59%2 o
   3  -5  15     20.11     57.00     73.60   59%2 <
  -2   4 -16     56.03    148.80     65.80   59%2 <
  -3   5 -11    565.70    603.50    108.60   59%2 o
  -3   5 -10    296.20    644.80    114.20   59%2 o
  -6   9  -6     63.65    225.10     68.40   59%2 o
  -4   6  -5   3380.90   4453.80    217.20   59%2 o
  -6   9  -5     20.12    -16.20     62.20   59%2 <
  -4   6  -4    266.70    511.80    135.10   59%2 o
  -6   9  -4    187.04    208.00     54.10   59%2 o
   6  -8  -3    389.46    609.50    119.40   59%2 o
  -2   3  -3  14476.00  14502.50    377.90   59%2 o
   5  -7   2     70.89    215.40    116.60   59%2 <
   5  -7   3   1234.00    954.80    139.20   59%2 o
  -5   7   3    147.24    882.90    135.30   59%2 o
   5  -7   4   1259.30   1299.10    146.40   59%2 o
   2  -3   5    794.05    890.50    229.50   59%2 o
   4  -6  10    242.14    275.90     90.30   59%2 o
   4  -6  11    312.34    183.00     80.30   59%2 <
   4  -6  12     29.92    -47.90     73.90   59%2 <
   4  -6  13     61.46     51.70     70.00   59%2 <
   1  -2  15    105.78    278.10     88.70   59%2 o
   1  -2  16    130.92    -59.00     75.50   59%2 <
   3  -3 -16    626.19    815.00    161.40   60%2 o
  -2   4 -16     65.64    148.80     65.80   60%2 <
   0   1 -15    401.46    419.60    104.90   60%2 o
  -2   4 -15    609.32    524.70    107.80   60%2 o
   0   1 -14     33.21    209.80    105.60   60%2 <
   5  -6 -13   1795.80   1052.80    175.60   60%2 o
  -3   5 -11    464.58    603.50    108.60   60%2 o
  -1   2 -10  21929.00  20782.90    417.00   60%2 o
  -3   5 -10    352.24    644.80    114.20   60%2 o
  -1   2  -9   3570.00   3660.10    244.70   60%2 o
  -3   5  -9   1079.40   1656.50    156.70   60%2 o
   4  -5  -8   7125.40   6438.00    332.80   60%2 o
  -1   2  -8  26948.00  31363.10    498.60   60%2 o
  -6   9  -6     86.68    225.10     68.40   60%2 o
   6  -8  -5    343.42    697.00    103.30   60%2 o
  -4   6  -5   3740.80   4453.80    217.20   60%2 o
  -6   9  -5      5.86    -16.20     62.20   60%2 <
   6  -8  -4   4635.20   4592.60    207.90   60%2 o
  -4   6  -4    373.63    511.80    135.10   60%2 o
  -6   9  -4    119.50    208.00     54.10   60%2 o
   6  -8  -3    275.09    609.50    119.40   60%2 o
   3  -4  -3  87139.00  66738.70    769.60   60%2 o
  -2   3  -3  13785.00  14502.50    377.90   60%2 o
  -4   6  -3    318.07   1374.90    153.00   60%2 o
  -6   9  -3    137.77    -86.90     66.30   60%2 <
   6  -8  -2   2748.90   3791.40    195.50   60%2 o
   3  -4  -2  44931.00  45842.10    617.10   60%2 o
  -2   3  -2  13649.00  14233.40    410.60   60%2 o
   5  -7   1     57.26    273.30    125.10   60%2 <
   5  -7   2     29.69    215.40    116.60   60%2 <
  -5   7   2    224.50    327.00    136.70   60%2 <
   5  -7   3   1313.30    954.80    139.20   60%2 o
   2  -3   3  14404.00  14055.10    369.70   60%2 o
  -5   7   3    691.68    882.90    135.30   60%2 o
   5  -7   4   1873.00   1299.10    146.40   60%2 o
   2  -3   4   4193.10   2806.10    288.00   60%2 o
  -5   7   4     30.96     34.80    122.40   60%2 <
   2  -3   5    461.34    890.50    229.50   60%2 o
  -3   4   5  45798.00  51563.00    653.10   60%2 o
  -5   7   5   1285.50   1028.50    148.40   60%2 o
   4  -6   8     36.89     93.40    113.60   60%2 <
   4  -6   9    300.92    987.30    137.90   60%2 o
  -1   1   9   1082.80    -19.90    270.50   60%2 <
   4  -6  10    254.19    275.90     90.30   60%2 o
   4  -6  11     98.74    183.00     80.30   60%2 <
   4  -6  12      9.42    -47.90     73.90   60%2 <
   1  -2  12  17469.00  17716.00    413.00   60%2 o
   4  -6  13     65.39     51.70     70.00   60%2 <
   1  -2  13      9.87    216.90    146.10   60%2 <
   1  -2  14   2665.90   2440.40    180.60   60%2 o
   1  -2  15    249.81    278.10     88.70   60%2 o
   1  -2  16      8.40    -59.00     75.50   60%2 <
   1  -2  17     52.13   -196.30     80.00   60%2 <
  -3   5 -12    196.56    421.50     85.90   60%2 o
  -4   6  -6   2275.70   2160.40    186.80   60%2 o
   5  -7   5     22.68     84.80     98.80   60%2 <
   2  -3   6   2481.70   3429.50    211.10   60%2 o
   0   1 -16     71.07     55.20     83.20   61%2 <
  -3   5 -13     26.25    140.30     73.70   61%2 <
   5  -6 -12    841.86    805.00    168.00   61%2 o
  -1   2 -11   1213.20   1305.30    201.60   61%2 o
  -1   2 -10  17149.00  20782.90    417.00   61%2 o
   4  -5  -7   6936.40   7763.20    334.20   61%2 o
   1  -1  -7  30595.00  30491.40    609.80   61%2 o
  -4   6  -7   7424.80   6675.80    252.50   61%2 o
  -4   6  -6   2432.40   2160.40    186.80   61%2 o
   7  -9  -5     56.52    136.40     87.70   61%2 <
  -2   3  -5   1729.70   2257.80    240.50   61%2 o
  -2   3  -4   3737.90   2921.90    238.10   61%2 o
   3  -4  -2  41225.00  45842.10    617.10   61%2 o
   6  -8  -1     36.04    140.00     91.70   61%2 <
   3  -4  -1  45763.00  42006.70    595.70   61%2 o
   6  -8   0    589.79    674.00    108.20   61%2 o
  -5   7   0    272.47    384.80    118.10   61%2 o
   6  -8   1    220.49    364.90    106.70   61%2 o
  -5   7   1   3231.60   3103.40    182.50   61%2 o
  -3   4   3  86543.00  76937.80    790.00   61%2 o
  -3   4   4   3315.30   3089.40    303.90   61%2 o
   5  -7   6   1991.60   2045.30    157.50   61%2 o
   2  -3   6   2341.50   3429.50    211.10   61%2 o
   5  -7   7    484.47    468.60    108.10   61%2 o
   2  -3   7   1555.70   1695.40    177.70   61%2 o
   5  -7   8     49.92    124.80     91.90   61%2 <
   2  -3   8    326.92   1409.50    191.60   61%2 o
   5  -7   9    487.75    526.10    105.30   61%2 o
  -6   8   9    161.83    106.10     96.20   61%2 <
  -1   1  10  35335.00  33495.50    544.20   61%2 o
  -6   8  10     30.13    130.80     86.00   61%2 <
  -1   1  11  44746.00  43655.90    626.00   61%2 o
  -1   1  12  25783.00  26712.00    495.50   61%2 o
  -1   1  13  25817.00  24551.10    479.40   61%2 o
   0   1 -17     92.84    292.10     75.60   61%2 o
  -3   5 -15     60.38    123.00     62.30   61%2 <
  -3   5 -14    260.89    548.40     78.40   61%2 o
  -1   2 -12  16292.00  16466.00    365.00   61%2 o
  -4   6 -10    234.06    627.60    105.60   61%2 o
  -4   6  -9   1264.40   1840.10    146.60   61%2 o
  -4   6  -8     58.77    217.00     81.90   61%2 <
  -2   3  -6   3282.90   3751.00    218.70   61%2 o
   7  -9  -4    603.51    814.30    105.60   61%2 o
   7  -9  -3     38.23     92.80     73.40   61%2 <
  -5   7  -3    754.38    939.20    127.20   61%2 o
  -5   7  -2     85.13    227.60    104.70   61%2 <
  -5   7  -1     79.13    104.00    110.90   61%2 <
   3  -4   0  30297.00  25280.00    471.70   61%2 o
   6  -8   2    138.79    447.80     98.30   61%2 o
  -3   4   2  43951.00  40476.20    600.30   61%2 o
   6  -8   3    190.92    308.50     96.90   61%2 o
   6  -8   4    308.81    377.60     87.90   61%2 o
   6  -8   5    199.65    263.70     89.50   61%2 <
   2  -3   9   4082.70   5489.10    239.20   61%2 o
   5  -7  10    159.67    116.90     61.00   61%2 <
   2  -3  10   7674.10   9181.90    285.30   61%2 o
   5  -7  11     11.35    133.60     54.40   61%2 <
   2  -3  11   1334.10   2384.70    190.50   61%2 o
   2  -3  12    287.16   1306.30    156.00   61%2 o
   2  -3  13    614.24   1128.90    128.30   61%2 o
   2  -3  14    250.00    803.40    109.10   61%2 o
   0   1 -17    109.09    292.10     75.60   62%2 o
  -3   5 -15     58.95    123.00     62.30   62%2 <
  -3   5 -14    240.76    548.40     78.40   62%2 o
   2  -2 -13   2109.90   2334.30    256.10   62%2 o
  -1   2 -13     42.08     85.50    141.50   62%2 <
   5  -6 -12    767.09    805.00    168.00   62%2 o
  -1   2 -12  16510.00  16466.00    365.00   62%2 o
   5  -6 -11   2012.80   2166.90    194.20   62%2 o
  -4   6 -10    241.07    627.60    105.60   62%2 o
  -4   6  -9   1127.40   1840.10    146.60   62%2 o
  -4   6  -8     57.25    217.00     81.90   62%2 <
   4  -5  -7   7169.60   7763.20    334.20   62%2 o
   4  -5  -6  27185.00  26140.80    501.00   62%2 o
  -2   3  -6   3313.20   3751.00    218.70   62%2 o
   7  -9  -5     58.15    136.40     87.70   62%2 <
   4  -5  -5  12688.00  14479.20    396.10   62%2 o
  -2   3  -5   1835.50   2257.80    240.50   62%2 o
   7  -9  -4    606.15    814.30    105.60   62%2 o
   7  -9  -3     38.80     92.80     73.40   62%2 <
  -5   7  -3    766.21    939.20    127.20   62%2 o
   7  -9  -2    350.71    290.00     93.40   62%2 o
  -5   7  -2     78.15    227.60    104.70   62%2 <
  -5   7  -1     83.49    104.00    110.90   62%2 <
   3  -4   0  30648.00  25280.00    471.70   62%2 o
   6  -8   1    227.93    364.90    106.70   62%2 o
   3  -4   1  16748.00  19723.10    430.80   62%2 o
  -3   4   1  45657.00  43408.10    605.00   62%2 o
   6  -8   2    140.54    447.80     98.30   62%2 o
  -3   4   2  44362.00  40476.20    600.30   62%2 o
   6  -8   3    213.11    308.50     96.90   62%2 o
  -3   4   3  87480.00  76937.80    790.00   62%2 o
   6  -8   4    290.81    377.60     87.90   62%2 o
   6  -8   5    172.63    263.70     89.50   62%2 <
  -6   8   6   1792.90   2598.00    164.90   62%2 o
  -6   8   7    461.29    614.90    114.00   62%2 o
   2  -3   8    282.47   1409.50    191.60   62%2 o
  -6   8   8    853.33   1143.40    121.10   62%2 o
   2  -3   9   4499.30   5489.10    239.20   62%2 o
  -6   8   9    163.90    106.10     96.20   62%2 <
   5  -7  10    159.39    116.90     61.00   62%2 <
   2  -3  10   8308.10   9181.90    285.30   62%2 o
  -6   8  10     33.65    130.80     86.00   62%2 <
   5  -7  11     10.84    133.60     54.40   62%2 <
   2  -3  11   1313.00   2384.70    190.50   62%2 o
  -1   1  11  44338.00  43655.90    626.00   62%2 o
   2  -3  12    263.88   1306.30    156.00   62%2 o
  -1   1  12  25799.00  26712.00    495.50   62%2 o
   2  -3  13    592.20   1128.90    128.30   62%2 o
  -1   1  13  25916.00  24551.10    479.40   62%2 o
   2  -3  14    325.48    803.40    109.10   62%2 o
  -1   1  14    409.20    905.90    179.20   62%2 o
   2  -3  15    870.22    482.80     98.80   62%2 o
  -1   1  15     27.94    252.70    125.30   62%2 <
   2  -3  16     43.18    137.50     94.20   62%2 <
  -1   1  16   1066.70    917.50    140.50   62%2 o
  -1   1  17    962.53    819.90    113.30   62%2 o
  -1   2 -14   2923.90   3301.10    180.30   62%2 o
  -4   6 -13     61.38    -41.00     70.40   62%2 <
  -4   6 -12     16.29    149.50     68.50   62%2 <
  -4   6 -11    352.45    233.20     65.50   62%2 o
  -2   3  -8    226.36    456.30    166.50   62%2 <
  -2   3  -7    583.13    493.50    148.00   62%2 o
  -5   7  -6   1486.90   1687.50    148.40   62%2 o
  -5   7  -5    210.74    440.10    101.60   62%2 o
  -5   7  -4   1930.80   1338.20    142.90   62%2 o
   7  -9  -1     11.72     43.70     66.90   62%2 <
   7  -9   0     19.90    120.90     72.60   62%2 <
   7  -9   1     56.79    124.60     73.00   62%2 <
   3  -4   2   9842.80   9490.50    312.70   62%2 o
   3  -4   3  13773.00  14228.10    356.70   62%2 o
  -6   8   5    545.29    483.90    116.50   62%2 o
   6  -8   6    625.88    287.90     82.80   62%2 o
   6  -8   7    789.50    714.00     96.30   62%2 o
  -1   2 -15    102.29     99.20     93.70   63%2 <
   2  -2 -14    167.98    419.80    169.50   63%2 <
  -1   2 -14   3013.20   3301.10    180.30   63%2 o
  -4   6 -13    148.05    -41.00     70.40   63%2 <
  -4   6 -12     19.53    149.50     68.50   63%2 <
   5  -6 -10     41.97    219.50    127.60   63%2 <
   5  -6  -9    748.61    468.40    156.90   63%2 <
  -2   3  -9   5722.80   5247.30    245.20   63%2 o
   1  -1  -8  17720.00  21108.80    481.80   63%2 o
  -2   3  -8    541.35    456.30    166.50   63%2 <
  -5   7  -6   2300.30   1687.50    148.40   63%2 o
   4  -5  -5  16174.00  14479.20    396.10   63%2 o
  -5   7  -5    140.59    440.10    101.60   63%2 o
   4  -5  -4  24922.00  23737.20    454.40   63%2 o
  -3   4  -1  17106.00  20043.40    430.40   63%2 o
   7  -9   0     31.10    120.90     72.60   63%2 <
  -3   4   0  29843.00  34244.70    528.50   63%2 o
   7  -9   1    122.97    124.60     73.00   63%2 <
  -3   4   1  47459.00  43408.10    605.00   63%2 o
   7  -9   2    171.78    326.60     76.90   63%2 o
   7  -9   3     14.41    130.90     88.90   63%2 <
   3  -4   3  12399.00  14228.10    356.70   63%2 o
  -6   8   3   2403.40   2440.90    165.40   63%2 o
   3  -4   4    503.46   1129.80    201.10   63%2 o
  -6   8   4    794.62    858.20    130.20   63%2 o
   3  -4   5     36.43    -76.50    176.20   63%2 <
  -6   8   5    615.26    483.90    116.50   63%2 o
  -1   1  16   1141.50    917.50    140.50   63%2 o
  -1   1  17   1102.00    819.90    113.30   63%2 o
  -1   2 -17      9.83     93.80     74.00   63%2 <
  -1   2 -16     13.40     58.00     65.80   63%2 <
  -2   3 -11   1723.90   2636.50    201.40   63%2 o
  -2   3 -10   6163.20   7181.00    264.10   63%2 o
  -5   7 -10    181.92    173.00     76.50   63%2 <
  -5   7  -9    476.99    480.10     94.80   63%2 o
  -5   7  -8    289.21    261.90     85.40   63%2 o
  -5   7  -7    567.66    457.80    107.60   63%2 o
   4  -5  -3   3498.10   3639.80    241.40   63%2 o
  -3   4  -3  14169.00  14712.70    369.90   63%2 o
   4  -5  -2    635.68   1151.50    191.40   63%2 o
  -3   4  -2   7766.70  10345.90    335.90   63%2 o
  -6   8  -2    857.46   1781.60    140.30   63%2 o
  -6   8  -1     52.75    162.20     80.70   63%2 <
  -6   8   0    670.73    730.20    106.40   63%2 o
  -6   8   1    353.79    327.10     94.60   63%2 o
  -6   8   2   3035.40   2680.60    165.40   63%2 o
   3  -4   6   4558.80   3639.60    216.40   63%2 o
   3  -4   7  17673.00  14865.60    363.50   63%2 o
   3  -4   8  10695.00   9884.50    305.10   63%2 o
   3  -4   9   9761.80   7515.30    282.50   63%2 o
   3  -4  10    302.56    129.90    135.40   63%2 <
   3  -4  11   1098.20   1211.10    141.90   63%2 o
   3  -4  12    100.72      5.80     91.20   63%2 <
   3  -4  13    197.56     15.40     84.40   63%2 <
   3  -4  14    432.07    430.20     92.60   63%2 o
   3  -4  15     86.35    -70.30     68.70   63%2 <
  -5   7 -11     43.64    102.60     46.40   63%2 <
  -6   8  -3    112.89    163.60     80.30   63%2 <
  -1   2 -17     15.93     93.80     74.00   64%2 <
  -1   2 -16     22.22     58.00     65.80   64%2 <
   2  -2 -15    444.83    718.20    150.30   64%2 o
   2  -2 -14    526.88    419.80    169.50   64%2 <
  -2   3 -11   2531.60   2636.50    201.40   64%2 o
   5  -6 -10    113.77    219.50    127.60   64%2 <
  -2   3 -10   6721.80   7181.00    264.10   64%2 o
  -5   7 -10    189.90    173.00     76.50   64%2 <
   5  -6  -9    641.89    468.40    156.90   64%2 <
   1  -1  -9   1489.50    472.30    281.30   64%2 <
  -5   7  -9    488.69    480.10     94.80   64%2 o
   5  -6  -8   1719.40   2244.00    200.20   64%2 o
   4  -5  -4  24064.00  23737.20    454.40   64%2 o
   4  -5  -3   4944.50   3639.80    241.40   64%2 o
  -3   4  -3  13094.00  14712.70    369.90   64%2 o
   4  -5  -2    629.41   1151.50    191.40   64%2 o
  -3   4  -2   8177.10  10345.90    335.90   64%2 o
  -6   8  -2    975.15   1781.60    140.30   64%2 o
  -3   4  -1  17676.00  20043.40    430.40   64%2 o
  -6   8  -1     46.04    162.20     80.70   64%2 <
  -6   8   0    729.57    730.20    106.40   64%2 o
  -6   8   1    289.36    327.10     94.60   64%2 o
   3  -4   6   4205.30   3639.60    216.40   64%2 o
   3  -4   7  17639.00  14865.60    363.50   64%2 o
   3  -4   8  10277.00   9884.50    305.10   64%2 o
   3  -4   9   9135.20   7515.30    282.50   64%2 o
   3  -4  10    108.48    129.90    135.40   64%2 <
   3  -4  11   1101.00   1211.10    141.90   64%2 o
   3  -4  12    104.89      5.80     91.20   64%2 <
   3  -4  13    201.48     15.40     84.40   64%2 <
   3  -4  14    428.37    430.20     92.60   64%2 o
   3  -4  15     77.50    -70.30     68.70   64%2 <
  -2   3 -13    161.30    217.50    106.30   64%2 <
  -2   3 -12   1054.20    881.90    131.70   64%2 o
  -5   7 -11     71.56    102.60     46.40   64%2 <
  -3   4  -6   4053.60   3775.30    233.90   64%2 o
  -6   8  -6    680.14    585.70    101.50   64%2 o
  -3   4  -5     37.40     94.00    139.80   64%2 <
  -6   8  -5    207.40    234.50     89.30   64%2 <
  -3   4  -4    455.17    661.90    166.90   64%2 o
  -6   8  -4    283.11    200.60     83.80   64%2 <
  -6   8  -3    114.64    163.60     80.30   64%2 <
   4  -5  -1   9672.70   8751.40    288.10   64%2 o
   4  -5   0   1915.70   1728.20    177.20   64%2 o
   4  -5   1   1009.60   1188.40    181.10   64%2 o
   4  -5   2    144.38     42.10    169.70   64%2 <
  -6   8  -7    706.63    774.30     87.30   64%2 o
  -1   2 -17      8.83     93.80     74.00   65%2 <
   2  -2 -16    195.51     42.70    125.50   65%2 <
   2  -2 -15    494.37    718.20    150.30   65%2 o
  -2   3 -13    155.81    217.50    106.30   65%2 <
  -2   3 -12   1131.10    881.90    131.70   65%2 o
  -2   3 -11   1910.60   2636.50    201.40   65%2 o
  -5   7 -11     64.31    102.60     46.40   65%2 <
   5  -6  -9    645.97    468.40    156.90   65%2 <
   1  -1  -9   1184.00    472.30    281.30   65%2 <
   5  -6  -8   1866.10   2244.00    200.20   65%2 o
   5  -6  -7  12809.00  15082.80    371.30   65%2 o
   5  -6  -6  10572.00   9619.50    318.40   65%2 o
  -3   4  -6   3817.00   3775.30    233.90   65%2 o
  -6   8  -6    663.45    585.70    101.50   65%2 o
  -3   4  -5     32.87     94.00    139.80   65%2 <
  -6   8  -5    193.35    234.50     89.30   65%2 <
  -3   4  -4    429.50    661.90    166.90   65%2 o
  -6   8  -4    274.55    200.60     83.80   65%2 <
  -3   4  -3  13306.00  14712.70    369.90   65%2 o
  -6   8  -3    106.89    163.60     80.30   65%2 <
   4  -5  -2    575.06   1151.50    191.40   65%2 o
  -6   8  -2    901.78   1781.60    140.30   65%2 o
   4  -5  -1   9407.50   8751.40    288.10   65%2 o
   4  -5   0   1533.80   1728.20    177.20   65%2 o
   4  -5   1    948.05   1188.40    181.10   65%2 o
   4  -5   2    130.16     42.10    169.70   65%2 <
   0   0  16   1119.70   1097.20    131.10   65%2 o
  -2   3 -16    135.51    213.00     85.20   65%2 <
  -2   3 -15    446.00    466.30     95.20   65%2 o
  -2   3 -14     41.08    113.50     81.00   65%2 <
  -3   4  -9   8838.70   8297.00    275.30   65%2 o
  -3   4  -8   9924.10   8272.90    294.50   65%2 o
  -3   4  -7  16880.00  16380.30    368.50   65%2 o
  -6   8  -7    701.39    774.30     87.30   65%2 o
   5  -6  -5    715.75    605.80    167.40   65%2 o
  -7   9   0     37.34     45.30     67.00   65%2 <
  -7   9   1    135.76    161.40     66.00   65%2 <
  -7   9   2    389.70    362.10     74.90   65%2 o
   4  -5   3    410.10    224.50    141.40   65%2 <
  -7   9   3    163.44     71.70     69.90   65%2 <
   4  -5   4   6378.80   5196.20    237.40   65%2 o
  -7   9   4     30.10    195.30     65.90   65%2 <
   4  -5   5   3022.80   2961.60    196.50   65%2 o
  -7   9   5     62.13     76.90     66.70   65%2 <
   4  -5   6   1034.00   1061.70    169.90   65%2 o
   4  -5   7   4002.20   3911.90    220.90   65%2 o
   4  -5   8    323.10     44.40    124.10   65%2 <
   4  -5   9   1702.50   2099.10    162.60   65%2 o
   4  -5  10     10.71    146.10     91.40   65%2 <
   4  -5  11    605.29    555.40     98.20   65%2 o
   4  -5  12     64.74    -58.60     81.00   65%2 <
   4  -5  13    258.29    246.70     84.60   65%2 <
   4  -5  14     54.53     63.70     69.80   65%2 <
   2  -2 -17     49.74    329.60    106.20   66%2 o
   2  -2 -16     62.86     42.70    125.50   66%2 <
  -2   3 -16     42.58    213.00     85.20   66%2 <
   1  -1 -12  26922.00  26165.00    489.70   66%2 o
   6  -7 -11    465.35   1008.00    145.80   66%2 o
   1  -1 -11  49774.00  51258.00    666.60   66%2 o
   6  -7 -10   2425.10   2988.30    192.00   66%2 o
   1  -1 -10  31983.00  35985.70    556.00   66%2 o
  -3   4 -10    732.25    730.40    157.70   66%2 o
  -3   4  -9  10372.00   8297.00    275.30   66%2 o
   5  -6  -4     37.46    241.40    153.60   66%2 <
  -7   9  -1    183.55    310.70     79.60   66%2 o
  -4   5   3   3475.20   2558.70    220.10   66%2 o
  -4   5   4  21611.00  25273.60    474.60   66%2 o
  -4   5   5  14134.00  13495.10    370.00   66%2 o
   0   0   6  51813.00  47332.10    661.00   66%2 o
  -4   5   6  25349.00  28207.00    484.70   66%2 o
  -4   5   7   7492.30   8361.40    349.10   66%2 o
   0   0   8   3654.90   3116.00    267.90   66%2 o
   0   0  10   6716.40   6710.40    277.70   66%2 o
   0   0  12   1389.60   1208.70    202.00   66%2 o
   0   0  14   1530.40   1645.50    143.70   66%2 o
  -3   4 -13    191.45    144.10     77.70   66%2 <
  -3   4 -12    261.83    262.40     96.50   66%2 <
  -3   4 -11    588.88    731.50    122.20   66%2 o
   6  -7  -9   1087.50     23.90    113.10   66%2 <
   6  -7  -8    827.83    960.70    139.00   66%2 o
   6  -7  -7    351.59    435.50    126.40   66%2 o
   6  -7  -6    215.70    157.80    121.30   66%2 <
   6  -7  -5    129.49    103.60    114.80   66%2 <
  -4   5  -4   4637.30   4053.90    229.20   66%2 o
   5  -6  -3    120.42    469.90    128.90   66%2 o
  -4   5  -3    343.94    214.80    162.10   66%2 <
  -7   9  -3    271.08    444.70     67.20   66%2 o
   5  -6  -2     82.71    484.20    147.50   66%2 o
  -4   5  -2    126.15     67.50    156.40   66%2 <
  -7   9  -2    489.43    158.10     59.30   66%2 <
   5  -6  -1   7817.80   7258.20    273.10   66%2 o
  -4   5  -1    868.12    856.70    150.40   66%2 o
   5  -6   0  11516.00   9310.50    303.30   66%2 o
  -4   5   0   2196.30   2230.20    182.00   66%2 o
   5  -6   1  10773.00  11166.80    309.30   66%2 o
  -4   5   1   9075.10   9605.10    285.40   66%2 o
   5  -6   2   2016.30   2097.80    188.50   66%2 o
  -4   5   2    500.39   1038.20    163.60   66%2 o
   5  -6   3   1158.10   1904.10    173.10   66%2 o
   5  -6   4    682.94    944.10    148.60   66%2 o
   5  -6   5   2605.60   2162.10    168.20   66%2 o
   5  -6   6    303.62    591.90    122.80   66%2 o
   5  -6   7   1487.70   1176.50    136.20   66%2 o
   5  -6   8     88.89    121.30     92.40   66%2 <
   5  -6   9     84.17    279.40     88.90   66%2 o
   5  -6  10    423.33    428.30    100.90   66%2 o
   5  -6  11    158.22    224.50     79.30   66%2 <
   5  -6  12     15.74     49.30     69.20   66%2 <
  -3   4 -15    157.31    121.00     70.80   66%2 <
  -3   4 -14    490.11    220.60     79.90   66%2 <
  -4   5  -8    363.75     -2.20    119.10   66%2 <
  -4   5  -7   5135.10   3792.50    213.90   66%2 o
  -4   5  -6    763.80   1035.40    154.30   66%2 o
  -4   5  -5   3361.30   2657.80    195.90   66%2 o
   6  -7  -4    148.18     82.10    112.60   66%2 <
   6  -7   7      3.69     70.40     77.80   66%2 <
   6  -7   8      9.27    -27.10     83.20   66%2 <
   6  -7   9    110.03     87.20     72.50   66%2 <
   1  -1  17    502.75    409.90     80.00   66%2 o
   2  -2 -17     45.31    329.60    106.20   67%2 o
   1  -1 -13  24060.00  21342.00    463.90   67%2 o
  -3   4 -13    177.90    144.10     77.70   67%2 <
   1  -1 -12  25082.00  26165.00    489.70   67%2 o
  -3   4 -12    243.31    262.40     96.50   67%2 <
   1  -1 -11  46620.00  51258.00    666.60   67%2 o
   6  -7  -9    879.83     23.90    113.10   67%2 <
   6  -7  -8    811.56    960.70    139.00   67%2 o
   6  -7  -7    362.91    435.50    126.40   67%2 o
   6  -7  -6    187.23    157.80    121.30   67%2 <
   6  -7  -5    116.10    103.60    114.80   67%2 <
  -4   5  -4   4418.00   4053.90    229.20   67%2 o
  -4   5  -3    342.69    214.80    162.10   67%2 <
  -4   5  -2    140.36     67.50    156.40   67%2 <
   5  -6  -1   7220.00   7258.20    273.10   67%2 o
  -4   5  -1    814.83    856.70    150.40   67%2 o
   5  -6   0  10733.00   9310.50    303.30   67%2 o
  -4   5   0   2105.00   2230.20    182.00   67%2 o
   5  -6   1  10136.00  11166.80    309.30   67%2 o
   5  -6   2   1915.10   2097.80    188.50   67%2 o
   5  -6   3   1269.60   1904.10    173.10   67%2 o
   5  -6   4    587.21    944.10    148.60   67%2 o
   0   0   4   4041.20   5106.70    507.40   67%2 o
   5  -6   5   2442.90   2162.10    168.20   67%2 o
   5  -6   6    294.13    591.90    122.80   67%2 o
   0   0   6  49492.00  47332.10    661.00   67%2 o
   5  -6   7   1513.80   1176.50    136.20   67%2 o
   5  -6   8     63.75    121.30     92.40   67%2 <
   0   0   8   3361.70   3116.00    267.90   67%2 o
   5  -6   9     76.17    279.40     88.90   67%2 o
   5  -6  10    331.51    428.30    100.90   67%2 o
   0   0  10   6264.30   6710.40    277.70   67%2 o
   5  -6  11    143.60    224.50     79.30   67%2 <
   5  -6  12     12.40     49.30     69.20   67%2 <
  -3   4 -15    146.94    121.00     70.80   67%2 <
  -3   4 -14    404.00    220.60     79.90   67%2 <
  -4   5 -10      4.67   -124.00     87.40   67%2 <
  -4   5  -9   1420.10   1860.70    149.30   67%2 o
  -4   5  -8    382.42     -2.20    119.10   67%2 <
  -4   5  -7   4881.00   3792.50    213.90   67%2 o
  -4   5  -6    870.31   1035.40    154.30   67%2 o
  -4   5  -5   3391.00   2657.80    195.90   67%2 o
   6  -7  -4    151.32     82.10    112.60   67%2 <
   6  -7  -3      9.82     35.90    107.40   67%2 <
   6  -7  -2     52.28      3.10    111.00   67%2 <
   6  -7  -1     99.01    162.40    113.80   67%2 <
   6  -7   0    278.04    669.80    127.80   67%2 o
   6  -7   1    703.79    571.60    123.20   67%2 o
   6  -7   2     25.35    273.40    104.20   67%2 <
   6  -7   3     43.87    203.90    109.60   67%2 <
   6  -7   4    678.66    628.80    112.00   67%2 o
   6  -7   5    141.60    156.50     92.30   67%2 <
   6  -7   6   1211.00    779.10    122.50   67%2 o
   6  -7   7      3.12     70.40     77.80   67%2 <
   6  -7   8      8.32    -27.10     83.20   67%2 <
   6  -7   9    106.81     87.20     72.50   67%2 <
   1  -1  14    639.12    700.90    126.80   67%2 o
   1  -1  15     32.01    232.70     95.90   67%2 <
   1  -1  16    493.41    659.60     97.50   67%2 o
   1  -1  17    473.01    409.90     80.00   67%2 o
  -4   5 -12     18.84    102.50     69.80   67%2 <
  -4   5 -11    702.53    767.70    103.90   67%2 o
   1  -1 -16    895.55   1348.60    152.10   68%2 o
   1  -1 -15    121.77   1451.60    161.90   68%2 o
  -3   4 -15     55.79    121.00     70.80   68%2 <
   1  -1 -14    242.52    623.40    162.80   68%2 o
  -3   4 -14    225.21    220.60     79.90   68%2 <
   1  -1 -13  24325.00  21342.00    463.90   68%2 o
   1  -1 -12  25718.00  26165.00    489.70   68%2 o
  -4   5 -10      4.92   -124.00     87.40   68%2 <
   6  -7  -9    228.37     23.90    113.10   68%2 <
  -4   5  -9   1349.40   1860.70    149.30   68%2 o
   6  -7  -8    876.92    960.70    139.00   68%2 o
  -4   5  -8    421.41     -2.20    119.10   68%2 <
   6  -7  -7    399.73    435.50    126.40   68%2 o
  -4   5  -7   4706.70   3792.50    213.90   68%2 o
   6  -7  -6    296.59    157.80    121.30   68%2 <
  -4   5  -6   1261.20   1035.40    154.30   68%2 o
   6  -7  -5    104.02    103.60    114.80   68%2 <
  -4   5  -5   2729.40   2657.80    195.90   68%2 o
   6  -7  -4    260.41     82.10    112.60   68%2 <
  -4   5  -4   4140.00   4053.90    229.20   68%2 o
   6  -7  -3     33.74     35.90    107.40   68%2 <
  -4   5  -3    342.00    214.80    162.10   68%2 <
   6  -7  -2     13.25      3.10    111.00   68%2 <
   6  -7  -1    135.03    162.40    113.80   68%2 <
   6  -7   0    324.91    669.80    127.80   68%2 o
   6  -7   1    829.19    571.60    123.20   68%2 o
   6  -7   2     16.58    273.40    104.20   68%2 <
   6  -7   3     30.94    203.90    109.60   68%2 <
   6  -7   4    669.21    628.80    112.00   68%2 o
   6  -7   5    135.93    156.50     92.30   68%2 <
   6  -7   6   1071.90    779.10    122.50   68%2 o
   0   0   6  47770.00  47332.10    661.00   68%2 o
   6  -7   7      3.06     70.40     77.80   68%2 <
   6  -7   8      6.06    -27.10     83.20   68%2 <
   6  -7   9    121.07     87.20     72.50   68%2 <
  -4   5  12   2218.20   3828.60    276.20   68%2 o
   1  -1  14    591.46    700.90    126.80   68%2 o
   1  -1  15     26.60    232.70     95.90   68%2 <
   1  -1  16    513.51    659.60     97.50   68%2 o
   1  -1  17    388.08    409.90     80.00   68%2 o
  -4   5 -14     16.29     75.00     58.60   68%2 <
  -4   5 -13    394.61    359.10     80.20   68%2 o
  -4   5 -12     22.40    102.50     69.80   68%2 <
  -4   5 -11    672.74    767.70    103.90   68%2 o
   7  -8   2    163.39    214.20     73.40   68%2 <
   7  -8   3     32.90     80.80     67.90   68%2 <
   7  -8   4     39.87     44.90     68.50   68%2 <
   7  -8   5     46.99     21.40     70.90   68%2 <
   1  -1  12    219.93    417.60    168.10   68%2 <
   1  -1  13   1118.00   1479.90    147.50   68%2 o
   1  -1 -17   2032.70   1262.60    130.60   69%2 o
   1  -1 -16    815.73   1348.60    152.10   69%2 o
  -4   5 -14     17.63     75.00     58.60   69%2 <
  -4   5 -13    540.54    359.10     80.20   69%2 o
  -4   5 -12     17.07    102.50     69.80   69%2 <
   0   0 -10   6972.80   6797.00    283.00   69%2 o
   0   0  -8   3105.90   3550.60    268.20   69%2 o
   7  -8  -7     20.87    170.10     92.10   69%2 <
   7  -8  -6    235.43    104.70     91.40   69%2 <
   6  -7  -6    411.90    157.80    121.30   69%2 <
   0   0  -6  51625.00  53400.80    681.80   69%2 o
   7  -8  -5    227.88    359.90     95.00   69%2 o
   6  -7  -5    118.61    103.60    114.80   69%2 <
   7  -8  -4      8.67     86.90     82.30   69%2 <
   6  -7  -4    221.86     82.10    112.60   69%2 <
   7  -8  -3    313.84    499.50    100.90   69%2 o
   6  -7  -3     43.90     35.90    107.40   69%2 <
  -5   6  -3   1728.00   2007.50    168.10   69%2 o
   7  -8  -2    992.91    669.00    106.50   69%2 o
   6  -7  -2     11.02      3.10    111.00   69%2 <
  -5   6  -2   2479.60   3246.00    219.60   69%2 o
   7  -8  -1    854.67    683.90    107.10   69%2 o
   6  -7  -1    130.02    162.40    113.80   69%2 <
  -5   6  -1  11221.00   9425.70    313.80   69%2 o
   7  -8   0     34.26     -5.90     77.30   69%2 <
   6  -7   0    263.07    669.80    127.80   69%2 o
  -5   6   0  10605.00   9421.80    313.50   69%2 o
   7  -8   1    189.24    286.80     81.60   69%2 o
   6  -7   1    854.70    571.60    123.20   69%2 o
  -5   6   1   8064.90   6125.00    273.00   69%2 o
   7  -8   2    158.23    214.20     73.40   69%2 <
   6  -7   2      6.84    273.40    104.20   69%2 <
  -5   6   2     72.63    331.30    166.50   69%2 <
   7  -8   3     36.29     80.80     67.90   69%2 <
   6  -7   3     30.50    203.90    109.60   69%2 <
  -5   6   3     67.81   -162.30    154.60   69%2 <
   7  -8   4     63.71     44.90     68.50   69%2 <
  -5   6   4     24.76     61.80    150.20   69%2 <
   7  -8   5     43.26     21.40     70.90   69%2 <
   1  -1  10   4145.20   4682.00    250.60   69%2 o
   1  -1  11  10254.00  11819.00    341.70   69%2 o
  -4   5  11  12776.00  13509.00    395.10   69%2 o
   1  -1  12    351.02    417.60    168.10   69%2 <
   1  -1  13   1234.60   1479.90    147.50   69%2 o
   2  -2  16    493.59    487.10    102.60   69%2 o
   0   0 -12   1302.30   1362.40    200.40   69%2 o
  -5   6 -12      7.28    -34.80     56.90   69%2 <
  -5   6 -11     96.56    288.10     77.50   69%2 o
  -5   6 -10    441.71    667.10     98.20   69%2 o
  -5   6  -9    270.15    109.50     85.70   69%2 <
  -5   6  -8    140.06     75.80     82.00   69%2 <
  -5   6  -7   1121.90   1036.90    126.40   69%2 o
  -5   6  -6    312.19    914.90    110.50   69%2 o
  -5   6  -5   2257.30   2202.50    145.00   69%2 o
  -5   6  -4    513.39    272.80    102.30   69%2 <
   1  -1   8   3877.10   3958.80    255.50   69%2 o
   1  -1   9    196.22    311.10    183.50   69%2 <
   2  -2  13   1969.50   2094.80    171.00   69%2 o
   2  -2  14    366.84    510.40    108.90   69%2 o
   2  -2  15   1678.50   1850.20    141.40   69%2 o
   3  -3  16    162.77     58.70     81.60   69%2 <
   1  -1 -17   1023.70   1262.60    130.60   70%2 o
   0   0 -16    910.09   1172.50    126.20   70%2 o
   0   0 -14   1468.00    780.50    154.60   70%2 o
   0   0 -12   1480.50   1362.40    200.40   70%2 o
  -5   6 -12      3.27    -34.80     56.90   70%2 <
  -5   6 -11    232.63    288.10     77.50   70%2 o
   0   0 -10   7494.10   6797.00    283.00   70%2 o
  -5   6 -10    615.71    667.10     98.20   70%2 o
  -5   6  -9    214.82    109.50     85.70   70%2 <
   0   0  -8   2647.30   3550.60    268.20   70%2 o
  -5   6  -8    120.91     75.80     82.00   70%2 <
  -5   6  -7    890.56   1036.90    126.40   70%2 o
  -5   6   2    320.50    331.30    166.50   70%2 <
  -5   6   3     82.85   -162.30    154.60   70%2 <
  -5   6   4     12.74     61.80    150.20   70%2 <
  -5   6   5    842.86    583.50    181.30   70%2 o
  -5   6   6  11687.00  10649.30    336.80   70%2 o
   1  -1   7  25853.00  29392.10    500.60   70%2 o
  -5   6   7  15895.00  15664.90    405.00   70%2 o
   1  -1   8   4401.60   3958.80    255.50   70%2 o
  -5   6   8   1614.30   1988.00    199.90   70%2 o
   1  -1   9    228.30    311.10    183.50   70%2 <
   1  -1  10   4825.20   4682.00    250.60   70%2 o
   2  -2  12   3158.40   2363.20    199.80   70%2 o
   2  -2  13   1898.60   2094.80    171.00   70%2 o
   2  -2  14    483.12    510.40    108.90   70%2 o
   2  -2  15   1351.10   1850.20    141.40   70%2 o
   3  -3  16     82.18     58.70     81.60   70%2 <
  -6   7  -8      9.50     34.00     70.20   70%2 <
  -6   7  -7      2.84    123.00     76.30   70%2 <
  -6   7  -6   1138.20    763.40    109.90   70%2 o
  -6   7  -5    175.67     64.60     85.40   70%2 <
  -6   7  -4    921.40    940.00    116.00   70%2 o
  -6   7  -3     32.40     -1.90     80.70   70%2 <
  -6   7  -2     17.69    -68.60     84.10   70%2 <
  -6   7  -1    922.80    727.30    104.80   70%2 o
  -6   7   0    403.93    329.20    101.40   70%2 o
  -6   7   1    115.65    375.90    110.00   70%2 o
   1  -1   6   8954.10  10414.00    368.90   70%2 o
   2  -2  10   4494.30   4806.70    244.90   70%2 o
   2  -2  11   3296.60   2390.40    197.60   70%2 o
   3  -3  13    223.44    377.40     95.30   70%2 o
   3  -3  14    100.94    212.30     83.10   70%2 <
   3  -3  15     26.94     54.90     73.80   70%2 <
   0   0 -16    908.24   1172.50    126.20   71%2 o
   0   0 -14   1354.70    780.50    154.60   71%2 o
  -6   7  -8     13.34     34.00     70.20   71%2 <
  -6   7  -7      4.05    123.00     76.30   71%2 <
  -6   7  -6    963.92    763.40    109.90   71%2 o
  -6   7  -5    147.55     64.60     85.40   71%2 <
  -6   7  -4   1009.00    940.00    116.00   71%2 o
  -6   7  -3     40.98     -1.90     80.70   71%2 <
  -6   7  -2      9.50    -68.60     84.10   71%2 <
  -6   7  -1    872.52    727.30    104.80   71%2 o
  -6   7   0    416.32    329.20    101.40   71%2 o
  -6   7   1    118.47    375.90    110.00   71%2 o
  -6   7   2      8.50     -9.70    100.10   71%2 <
  -6   7   3     33.97    146.60    102.40   71%2 <
  -6   7   4    208.77    378.90    109.50   71%2 o
   1  -1   5  33121.00  32790.50    576.90   71%2 o
   1  -1   6   8862.40  10414.00    368.90   71%2 o
   1  -1   7  24700.00  29392.10    500.60   71%2 o
  -5   6   7  15604.00  15664.90    405.00   71%2 o
  -5   6   8   1427.20   1988.00    199.90   71%2 o
   2  -2   9   2816.60   3601.60    232.70   71%2 o
  -5   6   9    331.34    648.90    155.30   71%2 o
   2  -2  10   4284.80   4806.70    244.90   71%2 o
  -5   6  10     92.46    181.50    119.60   71%2 <
   2  -2  11   3187.60   2390.40    197.60   71%2 o
   3  -3  12     43.06    224.50    115.70   71%2 <
   2  -2  12   3187.90   2363.20    199.80   71%2 o
   3  -3  13    186.52    377.40     95.30   71%2 o
   3  -3  14    108.52    212.30     83.10   71%2 <
   3  -3  15     35.90     54.90     73.80   71%2 <
  -1   1 -16    383.35    633.80    102.80   71%2 o
  -1   1 -15     28.86    116.00     92.20   71%2 <
  -1   1 -14    589.40    751.10    127.70   71%2 o
  -1   1 -13    725.45    580.60    149.00   71%2 o
  -1   1 -12    157.18    397.70    167.60   71%2 <
  -1   1 -11  12031.00  11361.90    341.20   71%2 o
  -1   1 -10   5183.80   4360.60    251.00   71%2 o
  -1   1  -9    206.05    609.80    186.20   71%2 o
  -1   1  -8   3408.50   3659.50    247.50   71%2 o
  -7   8  -4     90.66     97.30     60.00   71%2 <
  -7   8  -3     99.03    -61.70     63.00   71%2 <
  -7   8  -2    152.38    134.70     65.10   71%2 <
  -6   7   5    154.86    121.40     91.90   71%2 <
   2  -2   8   8964.30   7621.50    278.20   71%2 o
   3  -3  10   1188.10    871.90    156.30   71%2 o
   3  -3  11    146.61    196.60    118.30   71%2 <
   4  -4  12    406.49    617.40    108.30   71%2 o
   5  -5  13   1695.70   1060.60    121.50   71%2 o
   4  -4  13    233.83    156.50     88.40   71%2 <
   4  -4  14    336.97    250.50     84.60   71%2 <
  -1   1 -17    183.00    306.80     92.00   72%2 o
  -1   1 -16    412.43    633.80    102.80   72%2 o
  -1   1 -15     31.73    116.00     92.20   72%2 <
  -1   1 -14    560.10    751.10    127.70   72%2 o
  -1   1 -13    691.91    580.60    149.00   72%2 o
  -1   1 -12    142.20    397.70    167.60   72%2 <
  -1   1 -11  12025.00  11361.90    341.20   72%2 o
  -1   1 -10   5276.90   4360.60    251.00   72%2 o
  -1   1  -9    258.92    609.80    186.20   72%2 o
  -1   1  -8   3508.10   3659.50    247.50   72%2 o
  -1   1  -7  25648.00  26743.30    481.50   72%2 o
  -1   1  -6   8281.30   7154.50    352.00   72%2 o
  -1   1  -5  32414.00  32871.70    569.40   72%2 o
  -7   8  -4     74.67     97.30     60.00   72%2 <
  -7   8  -3     17.03    -61.70     63.00   72%2 <
  -7   8  -2    226.71    134.70     65.10   72%2 <
  -7   8  -1    144.34    305.00     89.10   72%2 o
  -7   8   0     18.36    103.50     80.40   72%2 <
  -6   7   3     20.37    146.60    102.40   72%2 <
   1  -1   4  42530.00  41215.30    604.30   72%2 o
  -6   7   4    221.86    378.90    109.50   72%2 o
   1  -1   5  32808.00  32790.50    576.90   72%2 o
  -6   7   5    115.71    121.40     91.90   72%2 <
  -6   7   6    482.89    486.00    121.20   72%2 o
   2  -2   7   5376.60   6943.60    300.90   72%2 o
  -6   7   7    859.12    484.30    119.50   72%2 o
   2  -2   8   9075.40   7621.50    278.20   72%2 o
  -6   7   8   1035.40   1400.60    139.80   72%2 o
   3  -3   9   3581.80   4546.60    249.10   72%2 o
   2  -2   9   3045.50   3601.60    232.70   72%2 o
   3  -3  10   1257.20    871.90    156.30   72%2 o
  -5   6  10    118.80    181.50    119.60   72%2 <
   4  -4  11   1464.80   1324.80    132.60   72%2 o
   3  -3  11    153.73    196.60    118.30   72%2 <
  -5   6  11   2313.10   1952.00    190.80   72%2 o
   4  -4  12    350.44    617.40    108.30   72%2 o
   3  -3  12     38.88    224.50    115.70   72%2 <
   5  -5  13   1704.30   1060.60    121.50   72%2 o
   4  -4  13    240.17    156.50     88.40   72%2 <
   4  -4  14    283.11    250.50     84.60   72%2 <
  -2   2 -16     65.54      7.00     70.60   72%2 <
  -2   2 -15   1423.30   1465.50    128.70   72%2 o
  -2   2 -14    462.11    503.40    103.00   72%2 o
  -2   2 -13   1681.70   2265.10    163.60   72%2 o
  -1   1  -4  44740.00  37823.60    610.30   72%2 o
  -7   8   1   1110.50    909.60    103.30   72%2 o
  -7   8   2    823.50    950.40    104.40   72%2 o
  -7   8   3    386.46    419.60     95.00   72%2 o
  -7   8   4     17.53     47.90     78.70   72%2 <
   2  -2   5  20184.00  28828.70    505.90   72%2 o
   2  -2   6   1201.40   1665.20    215.50   72%2 o
   3  -3   7  10047.00   9199.00    296.00   72%2 o
   3  -3   8   1304.70   2071.90    180.50   72%2 o
   4  -4   9   2696.50   2475.40    182.90   72%2 o
   5  -5  10    453.62    396.60    101.10   72%2 o
   4  -4  10   1588.20   1769.30    156.60   72%2 o
   5  -5  11     35.15    100.90     88.10   72%2 <
   5  -5  12     24.71    127.00     81.90   72%2 <
   6  -6  10     23.28     47.50     64.60   72%2 <
  -1   1 -17    174.13    306.80     92.00   73%2 o
  -2   2 -16     63.39      7.00     70.60   73%2 <
  -2   2 -15   1348.40   1465.50    128.70   73%2 o
  -2   2 -14    445.15    503.40    103.00   73%2 o
  -2   2 -13   1649.90   2265.10    163.60   73%2 o
  -2   2 -12   2344.80   1495.20    177.40   73%2 o
  -2   2 -11    868.45   1132.80    187.10   73%2 o
  -2   2 -10   4167.70   3698.10    232.00   73%2 o
  -2   2  -9   2959.70   3213.20    227.80   73%2 o
  -1   1  -7  25078.00  26743.30    481.50   73%2 o
  -1   1  -6   8136.40   7154.50    352.00   73%2 o
  -1   1  -5  31806.00  32871.70    569.40   73%2 o
  -1   1  -4  44258.00  37823.60    610.30   73%2 o
  -1   1  -3  22759.00  27182.50    615.30   73%2 o
  -7   8   1   1042.70    909.60    103.30   73%2 o
  -7   8   2    875.87    950.40    104.40   73%2 o
  -7   8   3    402.96    419.60     95.00   73%2 o
  -7   8   4     11.41     47.90     78.70   73%2 <
   2  -2   5  19991.00  28828.70    505.90   73%2 o
  -7   8   5    336.45    444.40     89.70   73%2 o
   2  -2   6   1151.60   1665.20    215.50   73%2 o
  -7   8   6    217.77    270.80     86.90   73%2 o
   3  -3   7  10020.00   9199.00    296.00   73%2 o
  -6   7   7    835.93    484.30    119.50   73%2 o
   4  -4   8    315.50    639.90    150.20   73%2 o
   3  -3   8   1216.60   2071.90    180.50   73%2 o
  -6   7   8   1006.90   1400.60    139.80   73%2 o
   4  -4   9   2663.80   2475.40    182.90   73%2 o
  -6   7   9    196.87     32.30     95.40   73%2 <
   5  -5  10    468.25    396.60    101.10   73%2 o
   4  -4  10   1552.90   1769.30    156.60   73%2 o
  -6   7  10   1957.30   1082.30    149.60   73%2 o
   5  -5  11     33.88    100.90     88.10   73%2 <
  -5   6  11   2138.00   1952.00    190.80   73%2 o
   5  -5  12     23.65    127.00     81.90   73%2 <
  -5   6  12    519.55    962.10    153.10   73%2 o
  -3   3 -16    115.74     14.30     69.90   73%2 <
  -3   3 -15     66.43    -35.50     71.20   73%2 <
  -3   3 -14     96.78    261.50     84.70   73%2 o
  -3   3 -13     74.42     96.00     80.50   73%2 <
  -3   3 -12    112.20    177.40     99.60   73%2 <
  -2   2  -8   9321.90   9875.50    297.30   73%2 o
  -2   2  -7   4447.70   5591.40    248.30   73%2 o
  -2   2  -6   1646.90   2430.60    263.80   73%2 o
   2  -2   4  50395.00  44349.00    581.00   73%2 o
   3  -3   5  15925.00  13036.70    348.20   73%2 o
   5  -5   6   1341.20    770.90    156.00   73%2 o
   4  -4   6   9539.60   9138.60    300.50   73%2 o
   3  -3   6    633.96    958.10    188.80   73%2 o
   6  -6   7   1863.70   1207.40    157.40   73%2 o
   5  -5   7    234.76    845.10    148.80   73%2 o
   4  -4   7   2213.80   2370.20    201.70   73%2 o
  -7   8   7     62.88     26.90     71.40   73%2 <
   6  -6   8    179.28    247.60    110.20   73%2 <
   5  -5   8   1133.90   1224.80    151.60   73%2 o
   6  -6   9     76.90    188.80     96.30   73%2 <
   5  -5   9    478.68    600.60     98.60   73%2 o
   6  -6  10     22.43     47.50     64.60   73%2 <
  -3   3 -16    108.32     14.30     69.90   74%2 <
  -3   3 -15     49.29    -35.50     71.20   74%2 <
  -3   3 -14     96.10    261.50     84.70   74%2 o
  -3   3 -13     68.00     96.00     80.50   74%2 <
  -3   3 -12    103.86    177.40     99.60   74%2 <
  -3   3 -11     67.67    108.30    136.20   74%2 <
  -3   3 -10   1712.00   1778.30    191.90   74%2 o
  -2   2  -7   4205.60   5591.40    248.30   74%2 o
  -2   2  -6   1458.00   2430.60    263.80   74%2 o
  -2   2  -5  19167.00  24564.60    485.20   74%2 o
   2  -2   3  20490.00  19493.10    487.00   74%2 o
   3  -3   4   3380.90   5973.90    318.90   74%2 o
   4  -4   5    573.82   1576.80    216.90   74%2 o
   3  -3   5  14082.00  13036.70    348.20   74%2 o
   5  -5   6   1238.00    770.90    156.00   74%2 o
   4  -4   6   8730.00   9138.60    300.50   74%2 o
   6  -6   7   1679.80   1207.40    157.40   74%2 o
   5  -5   7    225.50    845.10    148.80   74%2 o
  -7   8   7     99.71     26.90     71.40   74%2 <
  -6   7  10   1771.70   1082.30    149.60   74%2 o
  -6   7  11    368.72    195.50    105.20   74%2 <
  -5   6  12   1032.30    962.10    153.10   74%2 o
  -1   2  17   1090.50    922.30    123.50   74%2 o
  -4   4 -14    149.51    176.30     77.00   74%2 <
  -4   4 -13    206.26    401.60     84.00   74%2 o
  -4   4 -12    384.39   1224.60    120.00   74%2 o
  -4   4 -11    199.95    281.70    102.10   74%2 <
  -4   4 -10   1328.40   1823.10    151.90   74%2 o
  -3   3  -9   3276.20   3228.20    201.80   74%2 o
  -4   4  -9   1976.60   1745.80    185.10   74%2 o
  -3   3  -8   1044.80   1274.80    175.90   74%2 o
  -3   3  -7   9962.00  11058.80    308.20   74%2 o
  -3   3  -6    686.53   1512.30    215.80   74%2 o
  -3   3  -5  15390.00  17955.10    398.90   74%2 o
  -2   2  -4  45822.00  43234.60    612.00   74%2 o
  -2   2  -3  20479.00  17872.70    463.40   74%2 o
   2  -2   2 107390.00  76087.30    820.30   74%2 o
   4  -4   3   8932.70   9894.70    323.90   74%2 o
   3  -3   3    770.12   2217.10    273.50   74%2 o
   7  -7   4    468.05    477.30    100.00   74%2 o
   6  -6   4     64.35    182.70    109.60   74%2 <
   5  -5   4   4228.70   3674.40    217.30   74%2 o
   4  -4   4   2404.50   2357.50    209.90   74%2 o
   7  -7   5    342.23    265.40     98.10   74%2 <
   6  -6   5    708.19    738.30    122.40   74%2 o
   5  -5   5   1839.80   1624.60    185.00   74%2 o
   7  -7   6     49.51     86.10     66.40   74%2 <
   6  -6   6   1126.90    985.90    107.20   74%2 o
  -5   5 -13   1207.60    864.80    106.20   74%2 o
  -5   5 -12     97.81    199.70     83.80   74%2 <
  -5   5 -11     59.27    205.50     81.30   74%2 <
  -5   5 -10    500.08    599.00    105.10   74%2 o
  -4   4  -8    585.77    895.80    156.90   74%2 o
  -4   4  -7   2017.70   2393.80    193.20   74%2 o
   7  -7   2    211.87    157.30     90.30   74%2 <
   6  -6   2    269.59    297.80    119.60   74%2 <
   5  -5   2   3486.90   3526.20    217.20   74%2 o
   4  -4   2   1584.20   3241.50    215.80   74%2 o
   3  -3   2   8464.50  11285.30    351.60   74%2 o
   7  -7   3    328.80    297.00     72.50   74%2 o
   6  -6   3    246.44    513.60    124.70   74%2 o
   5  -5   3   1833.00   1827.70    188.10   74%2 o
  -1   2  17   1072.40    922.30    123.50   75%2 o
  -4   4 -14    155.20    176.30     77.00   75%2 <
  -4   4 -13    204.77    401.60     84.00   75%2 o
  -4   4 -12    391.86   1224.60    120.00   75%2 o
  -4   4 -11    193.31    281.70    102.10   75%2 <
  -3   3 -10   1749.70   1778.30    191.90   75%2 o
  -4   4 -10   1326.00   1823.10    151.90   75%2 o
  -3   3  -9   3336.50   3228.20    201.80   75%2 o
  -4   4  -9   1957.90   1745.80    185.10   75%2 o
  -3   3  -8   1052.80   1274.80    175.90   75%2 o
  -3   3  -7   9982.00  11058.80    308.20   75%2 o
  -3   3  -6    696.28   1512.30    215.80   75%2 o
  -2   2  -5  19120.00  24564.60    485.20   75%2 o
  -3   3  -5  15489.00  17955.10    398.90   75%2 o
  -2   2  -4  45862.00  43234.60    612.00   75%2 o
  -2   2  -3  20571.00  17872.70    463.40   75%2 o
   2  -2   2 107810.00  76087.30    820.30   75%2 o
   4  -4   3   8924.80   9894.70    323.90   75%2 o
   3  -3   3    758.92   2217.10    273.50   75%2 o
   2  -2   3  20438.00  19493.10    487.00   75%2 o
   7  -7   4    457.53    477.30    100.00   75%2 o
   6  -6   4     63.22    182.70    109.60   75%2 <
   5  -5   4   4205.40   3674.40    217.30   75%2 o
   4  -4   4   2395.00   2357.50    209.90   75%2 o
   3  -3   4   3357.60   5973.90    318.90   75%2 o
   7  -7   5    350.42    265.40     98.10   75%2 <
   6  -6   5    722.06    738.30    122.40   75%2 o
   5  -5   5   1849.00   1624.60    185.00   75%2 o
   4  -4   5    558.39   1576.80    216.90   75%2 o
   7  -7   6     51.52     86.10     66.40   75%2 <
   6  -6   6   1128.40    985.90    107.20   75%2 o
  -6   7  11    334.04    195.50    105.20   75%2 <
  -5   5 -13   1236.70    864.80    106.20   75%2 o
  -5   5 -12     96.05    199.70     83.80   75%2 <
  -5   5 -11     59.65    205.50     81.30   75%2 <
  -5   5 -10    507.91    599.00    105.10   75%2 o
  -5   5  -9    294.16    940.30    123.50   75%2 o
  -4   4  -8    602.14    895.80    156.90   75%2 o
  -5   5  -8    990.05    929.40    143.20   75%2 o
  -4   4  -7   2034.60   2393.80    193.20   75%2 o
  -4   4  -6   8314.70   7772.80    278.90   75%2 o
  -3   3  -4   3472.50   5374.90    258.20   75%2 o
   7  -7   0     60.72    380.10    100.50   75%2 o
   7  -7   1    659.24    478.60    110.10   75%2 o
   6  -6   1    955.29   1038.00    142.10   75%2 o
   5  -5   1    728.49    700.00    157.70   75%2 o
   2  -2   1   6276.50   5198.00    389.50   75%2 o
   7  -7   2    220.18    157.30     90.30   75%2 <
   6  -6   2    274.16    297.80    119.60   75%2 <
   5  -5   2   3445.80   3526.20    217.20   75%2 o
   4  -4   2   1640.00   3241.50    215.80   75%2 o
   3  -3   2   8449.70  11285.30    351.60   75%2 o
   7  -7   3    338.23    297.00     72.50   75%2 o
   6  -6   3    249.40    513.60    124.70   75%2 o
   5  -5   3   1901.40   1827.70    188.10   75%2 o
  -2   3  16    448.16    428.00    123.00   76%2 o
   1   0  17     53.35    160.70     72.30   76%2 <
   0   1  17     99.21     37.60     87.30   76%2 <
  -1   2  17    999.63    922.30    123.50   76%2 o
  -1   1  -1  52090.00  96875.90   1043.70   76%2 o
  -5   5 -13   1538.70    864.80    106.20   76%2 o
  -5   5 -12     84.75    199.70     83.80   76%2 <
  -4   4 -11    128.98    281.70    102.10   76%2 <
  -5   5 -11     67.25    205.50     81.30   76%2 <
  -4   4 -10   1451.30   1823.10    151.90   76%2 o
  -5   5 -10    559.07    599.00    105.10   76%2 o
  -6   6 -10     22.73    -16.70     72.90   76%2 <
  -4   4  -9   1881.80   1745.80    185.10   76%2 o
  -5   5  -9    303.22    940.30    123.50   76%2 o
  -4   4  -8    826.37    895.80    156.90   76%2 o
  -5   5  -8   1020.10    929.40    143.20   76%2 o
  -4   4  -7   2241.20   2393.80    193.20   76%2 o
  -5   5  -7    204.63    188.90    121.40   76%2 <
  -3   3  -6    818.18   1512.30    215.80   76%2 o
  -4   4  -6   8142.30   7772.80    278.90   76%2 o
  -3   3  -5  17256.00  17955.10    398.90   76%2 o
  -4   4  -5    484.49    827.20    162.10   76%2 o
  -3   3  -4   3730.10   5374.90    258.20   76%2 o
  -2   2  -3  22019.00  17872.70    463.40   76%2 o
  -3   3  -3    830.99    291.20    263.50   76%2 <
   7  -7  -1    764.29    712.00    131.30   76%2 o
   7  -7   0     53.57    380.10    100.50   76%2 o
   6  -6   0   1818.10   2317.40    205.60   76%2 o
   5  -5   0    215.55    101.70    182.30   76%2 <
   7  -7   1    654.15    478.60    110.10   76%2 o
   6  -6   1   1056.20   1038.00    142.10   76%2 o
   5  -5   1    678.57    700.00    157.70   76%2 o
   4  -4   1   2980.30   5262.60    277.10   76%2 o
   2  -2   1   7014.80   5198.00    389.50   76%2 o
   7  -7   2    260.36    157.30     90.30   76%2 <
   6  -6   2    381.37    297.80    119.60   76%2 <
   5  -5   2   3556.50   3526.20    217.20   76%2 o
   4  -4   2   1671.40   3241.50    215.80   76%2 o
   3  -3   2   8720.00  11285.30    351.60   76%2 o
   2  -2   2 115560.00  76087.30    820.30   76%2 o
   7  -7   3    369.16    297.00     72.50   76%2 o
   6  -6   3    327.08    513.60    124.70   76%2 o
   5  -5   3   2323.50   1827.70    188.10   76%2 o
   4  -4   3   9228.00   9894.70    323.90   76%2 o
   3  -3   3    767.95   2217.10    273.50   76%2 o
  -6   6  -9     71.00    120.60     63.50   76%2 <
  -6   6  -8    153.07    272.50     93.10   76%2 <
  -6   6  -7   1871.90   1452.40    144.80   76%2 o
  -5   5  -6   1374.10   1089.30    151.40   76%2 o
  -5   5  -5   1895.50   2117.90    176.60   76%2 o
  -4   4  -4   2568.00   3056.60    204.00   76%2 o
   7  -7  -2    888.57    497.40    103.60   76%2 o
  -3   3  -2   9368.80  10258.50    332.00   76%2 o
   6  -6  -1   4348.60   4112.30    206.30   76%2 o
   4  -4   0    555.56   1033.50    188.90   76%2 o
   3  -2  16      5.99    -28.30     65.10   77%2 <
   2  -1  16     32.69    -49.50     81.50   77%2 <
   0   1  16     35.41    259.60     96.00   77%2 <
  -1   2  16     72.03     -4.50    108.50   77%2 <
  -2   3  16    477.88    428.00    123.00   77%2 o
   1   0  17     29.13    160.70     72.30   77%2 <
   0   1  17    105.05     37.60     87.30   77%2 <
  -1   2  17   1115.50    922.30    123.50   77%2 o
   7  -7  -5    624.59    915.70    115.80   77%2 o
  -7   7  -5    233.09    261.90     92.90   77%2 <
   7  -7  -4    135.44    176.30    107.20   77%2 <
  -6   6  -4     96.16    162.60    100.80   77%2 <
  -7   7  -4    710.73    552.90     97.20   77%2 o
   6  -6  -3   2451.30   1920.50    157.50   77%2 o
  -5   5  -3    913.91   1987.30    183.20   77%2 o
  -6   6  -3    152.42    484.60    106.60   77%2 o
   5  -5  -2   2004.60   1657.30    210.20   77%2 o
  -4   4  -2   2399.10   3839.90    239.20   77%2 o
  -5   5  -2   2882.90   2520.20    197.60   77%2 o
   4  -4  -1   6531.40  12896.00    359.20   77%2 o
   3  -3  -1 116770.00  98231.80    867.20   77%2 o
  -2   2  -1   6322.30   5132.70    441.10   77%2 o
  -3   3  -1  35190.00  36548.70    562.70   77%2 o
   3  -3   0   8512.20   7791.80    377.40   77%2 o
   2  -2   0  16324.00  17102.80    522.90   77%2 o
   4  -3  15    133.91     88.70     74.10   77%2 <
   3  -2  15     24.11     45.80     69.90   77%2 <
  -6   6 -10     21.01    -16.70     72.90   77%2 <
  -6   6  -9     73.14    120.60     63.50   77%2 <
  -5   5  -8   1043.10    929.40    143.20   77%2 o
  -6   6  -8    162.02    272.50     93.10   77%2 <
  -5   5  -7    213.46    188.90    121.40   77%2 <
  -6   6  -7   1917.20   1452.40    144.80   77%2 o
  -5   5  -6   1372.70   1089.30    151.40   77%2 o
  -6   6  -6   1050.40    702.50    121.50   77%2 o
  -4   4  -5    510.87    827.20    162.10   77%2 o
  -5   5  -5   1883.40   2117.90    176.60   77%2 o
  -6   6  -5    897.76    784.80    113.40   77%2 o
  -4   4  -4   2533.60   3056.60    204.00   77%2 o
  -5   5  -4   5141.00   4536.80    219.10   77%2 o
   7  -7  -3    837.75    760.90    113.00   77%2 o
  -3   3  -3    815.81    291.20    263.50   77%2 <
  -4   4  -3  10647.00   8971.80    299.80   77%2 o
   7  -7  -2    788.68    497.40    103.60   77%2 o
   6  -6  -2   1172.80    913.20    140.10   77%2 o
  -3   3  -2   9522.10  10258.50    332.00   77%2 o
   7  -7  -1    765.83    712.00    131.30   77%2 o
   6  -6  -1   4425.10   4112.30    206.30   77%2 o
   5  -5  -1    475.31    755.40    158.70   77%2 o
   7  -7   0     53.76    380.10    100.50   77%2 o
   6  -6   0   1722.20   2317.40    205.60   77%2 o
   5  -5   0    218.49    101.70    182.30   77%2 <
   4  -4   0    568.01   1033.50    188.90   77%2 o
   5  -5   1    695.16    700.00    157.70   77%2 o
   4  -4   1   3071.00   5262.60    277.10   77%2 o
   2  -2   1   7022.40   5198.00    389.50   77%2 o
  -7   7  -6     31.80    -29.60     52.70   77%2 <
  -1   2  15    809.18    819.40    151.10   78%2 o
  -2   3  15   2666.40   1675.70    192.20   78%2 o
   7  -7  -8    536.88    451.80    111.00   78%2 o
   7  -7  -7    224.96    581.50    107.50   78%2 o
   7  -7  -6    106.35      9.60    106.40   78%2 <
   6  -6  -6   1116.40   1102.10    150.30   78%2 o
   7  -7  -5   1052.20    915.70    115.80   78%2 o
   6  -6  -5    925.01   1239.60    157.70   78%2 o
  -7   7  -5    236.16    261.90     92.90   78%2 <
   7  -7  -4    147.95    176.30    107.20   78%2 <
   6  -6  -4    864.95    519.60    155.00   78%2 o
   5  -5  -4   2180.60   2182.50    217.30   78%2 o
  -7   7  -4    856.09    552.90     97.20   78%2 o
   6  -6  -3   2524.90   1920.50    157.50   78%2 o
   5  -5  -3   3711.80   4422.80    245.50   78%2 o
   4  -4  -3   5135.30   7301.30    311.80   78%2 o
  -6   6  -3    135.83    484.60    106.60   78%2 o
  -7   7  -3     23.16     13.50     76.50   78%2 <
   5  -5  -2   1669.60   1657.30    210.20   78%2 o
   4  -4  -2  12361.00  12028.50    349.60   78%2 o
   3  -3  -2  14010.00  10063.40    427.00   78%2 o
  -5   5  -2   2724.70   2520.20    197.60   78%2 o
  -6   6  -2    257.36    502.80    108.50   78%2 o
  -7   7  -2    161.19    177.00     88.10   78%2 <
   3  -3  -1 115370.00  98231.80    867.20   78%2 o
   2  -2  -1  83298.00  68425.80    804.90   78%2 o
  -3   3  -1  34595.00  36548.70    562.70   78%2 o
  -4   4  -1   2568.70   5460.00    241.80   78%2 o
  -5   5  -1   1580.60   1188.50    187.00   78%2 o
  -6   6  -1    923.98    823.90    129.40   78%2 o
  -7   7  -1    625.36    584.70    104.00   78%2 o
  -2   2   0  15117.00  18798.10    534.00   78%2 o
  -3   3   0   9068.60   7744.80    360.00   78%2 o
  -4   4   0    396.28    773.80    214.50   78%2 o
  -5   5   0    226.29    399.70    140.80   78%2 <
  -6   6   0   2963.50   2428.40    185.00   78%2 o
  -7   7   0     37.72    467.20     95.70   78%2 o
  -4   4   1   9160.50  14522.50    358.20   78%2 o
   6  -5  10    102.52    201.80     80.20   78%2 <
   6  -5  11    103.11     76.10     78.30   78%2 <
   5  -4  11    373.87    251.90     90.40   78%2 <
   5  -4  12     15.84    135.80     79.40   78%2 <
   4  -3  12    100.23    -29.50     88.50   78%2 <
   5  -4  13     47.89     11.60     72.10   78%2 <
   4  -3  13    119.53    193.20     86.40   78%2 <
   3  -2  13    152.91    289.60     97.90   78%2 <
   2  -1  13     64.61    221.80    152.80   78%2 <
   4  -3  14    243.46    136.40     75.10   78%2 <
   3  -2  14     64.88     61.30     72.60   78%2 <
   2  -1  14    986.22   1203.40    145.50   78%2 o
   0   1  14    260.88    320.30    137.30   78%2 <
   3  -2  15     44.31     45.80     69.90   78%2 <
   2  -1  15    537.54    345.70     91.10   78%2 o
   1   0  15    856.67    872.10    124.00   78%2 o
   0   1  15    365.13    242.50    110.30   78%2 <
   7  -7  -9    332.91    224.50    115.60   79%2 <
   7  -7  -8    532.38    451.80    111.00   79%2 o
   6  -6  -8    484.29   1438.20    177.50   79%2 o
   7  -7  -7    224.74    581.50    107.50   79%2 o
   6  -6  -7    134.16    101.60    146.80   79%2 <
   6  -6  -6   1143.60   1102.10    150.30   79%2 o
   5  -5  -6   2812.00   3667.90    260.40   79%2 o
   6  -6  -5    842.05   1239.60    157.70   79%2 o
   5  -5  -5  10990.00  12910.70    350.40   79%2 o
   5  -5  -4   1929.80   2182.50    217.30   79%2 o
   4  -4  -4   4241.50   3922.10    298.50   79%2 o
   4  -4  -3   4485.60   7301.30    311.80   79%2 o
   3  -3  -3   8682.40   9538.00    422.70   79%2 o
   3  -3  -2  13294.00  10063.40    427.00   79%2 o
  -6   6  -1    833.93    823.90    129.40   79%2 o
  -7   7  -1    557.10    584.70    104.00   79%2 o
  -4   4   0    344.29    773.80    214.50   79%2 o
  -5   5   0    184.26    399.70    140.80   79%2 <
  -6   6   0   2674.70   2428.40    185.00   79%2 o
  -7   7   0     43.57    467.20     95.70   79%2 o
  -2   2   1  78585.00  68893.70    801.90   79%2 o
  -3   3   1 103580.00  72454.10    793.90   79%2 o
  -4   4   1   8398.50  14522.50    358.20   79%2 o
  -5   5   1   1147.60   1428.50    194.10   79%2 o
  -6   6   1   5404.00   5046.80    234.70   79%2 o
   6  -5  10    106.84    201.80     80.20   79%2 <
   6  -5  11     84.35     76.10     78.30   79%2 <
   5  -4  11    366.33    251.90     90.40   79%2 <
   5  -4  12     19.32    135.80     79.40   79%2 <
   4  -3  12     83.05    -29.50     88.50   79%2 <
   3  -2  13    141.33    289.60     97.90   79%2 <
   2  -1  13     53.69    221.80    152.80   79%2 <
   1   0  13   3865.40   4173.00    228.60   79%2 o
   0   1  14    260.08    320.30    137.30   79%2 <
  -1   2  14   3680.60   4582.40    232.10   79%2 o
  -7   7   1    834.49    853.90    116.90   79%2 o
  -4   4   2  11436.00  10961.70    337.50   79%2 o
  -5   5   2   3092.10   2748.60    221.00   79%2 o
  -6   6   2   1728.50   1481.30    151.80   79%2 o
  -7   7   2     56.93    165.60     80.70   79%2 <
   7  -6   7    199.65     73.00     91.00   79%2 <
   6  -5   8    804.61    589.50    114.50   79%2 o
   6  -5   9     36.98     76.60     80.40   79%2 <
   5  -4   9    220.80    445.80    111.60   79%2 o
   5  -4  10    223.15    143.10     95.70   79%2 <
   4  -3  10   1500.30   2165.90    168.40   79%2 o
   4  -3  11    140.37    147.10    112.30   79%2 <
   3  -2  11   1180.10   2361.40    209.30   79%2 o
   3  -2  12   3815.20   4350.20    210.10   79%2 o
   2  -1  12  27636.00  30486.50    517.40   79%2 o
   6  -6  -9    711.48   1297.80    168.00   80%2 o
   6  -6  -8    546.39   1438.20    177.50   80%2 o
   5  -5  -7   5198.30   4589.50    271.80   80%2 o
   5  -5  -6   3167.40   3667.90    260.40   80%2 o
   4  -4  -5  40184.00  43164.30    583.80   80%2 o
   3  -3  -3  10214.00   9538.00    422.70   80%2 o
   2  -2  -2  41204.00  62581.90    804.60   80%2 o
  -3   3   2  10841.00  10724.50    415.60   80%2 o
  -4   4   2  12793.00  10961.70    337.50   80%2 o
  -5   5   2   3709.40   2748.60    221.00   80%2 o
  -6   6   2   2082.10   1481.30    151.80   80%2 o
  -7   7   2     60.61    165.60     80.70   80%2 <
   6  -5   8    888.37    589.50    114.50   80%2 o
   5  -4   9    508.06    445.80    111.60   80%2 o
   4  -3  10   1051.50   2165.90    168.40   80%2 o
   3  -2  11    702.98   2361.40    209.30   80%2 o
   0   1  13   4256.40   4401.20    248.40   80%2 o
  -1   2  13  12130.00   8941.40    318.10   80%2 o
  -1   0 -17     71.93     73.40     77.00   80%2 <
  -2   1 -16     15.21     90.50     77.60   80%2 <
  -3   2 -16     52.12     32.20     64.00   80%2 <
  -2   1 -15    146.33     96.40     94.90   80%2 <
  -3   2 -15    103.05     27.60     64.70   80%2 <
  -4   3 -15    142.67    109.90     62.80   80%2 <
  -3   2 -14    594.03    -23.80     86.20   80%2 <
  -4   3 -14     54.90     65.60     63.10   80%2 <
  -5   4 -13    298.75     69.80     68.30   80%2 <
   8  -7   3    370.10    204.30     89.60   80%2 <
  -4   4   3   6158.40   5567.00    266.10   80%2 o
  -5   5   3    369.28    419.20    173.10   80%2 <
  -6   6   3   1678.40   1234.50    138.90   80%2 o
  -7   7   3    665.00    423.00     94.20   80%2 o
  -6   6   4    106.23     60.80    118.90   80%2 <
  -7   7   4    622.66   1139.10    119.70   80%2 o
   7  -6   5    498.10    689.50    112.40   80%2 o
   7  -6   6    197.90    170.00     71.40   80%2 <
   6  -5   6   1837.80   1517.00    153.60   80%2 o
   6  -5   7    126.09    849.20    122.90   80%2 o
   5  -4   8    563.30    356.30    129.80   80%2 <
   4  -3   9    313.48    452.30    143.90   80%2 o
   3  -2  10   1634.80    926.40    165.40   80%2 o
   2  -1  11   2841.10   2334.90    202.40   80%2 o
   0   1  12   5499.40   4168.20    254.70   80%2 o
  -3   2 -13    317.75    369.90     99.10   80%2 o
  -4   3 -13     93.04    202.40     72.50   80%2 <
  -4   3 -12    345.89    148.30     87.20   80%2 <
  -5   4 -12     69.04    -44.80     70.10   80%2 <
  -5   4 -11    278.80    389.50     87.80   80%2 o
  -6   5 -11     26.85      7.60     60.50   80%2 <
   8  -7   2    277.23    244.80     81.20   80%2 o
   7  -6   4     90.07    200.50    100.50   80%2 <
   6  -5   5    298.21    888.90    140.70   80%2 o
   5  -4   7   3227.60   2010.80    174.10   80%2 o
   4  -3   8   6649.80   5245.30    245.20   80%2 o
   3  -2   9   3743.60   2792.10    202.10   80%2 o
  -1   0 -17     58.82     73.40     77.00   81%2 <
  -2   1 -16     47.40     90.50     77.60   81%2 <
  -3   2 -16    194.11     32.20     64.00   81%2 <
  -2   1 -15    327.88     96.40     94.90   81%2 <
  -3   2 -15     69.93     27.60     64.70   81%2 <
  -4   3 -15    177.66    109.90     62.80   81%2 <
  -3   2 -14    227.98    -23.80     86.20   81%2 <
  -4   3 -14     31.00     65.60     63.10   81%2 <
  -5   4 -13    180.55     69.80     68.30   81%2 <
   6  -6 -10    434.40    183.90    135.10   81%2 <
   6  -6  -9   1057.50   1297.80    168.00   81%2 o
   5  -5  -8   7557.00   9109.30    318.50   81%2 o
   5  -5  -7   7768.40   4589.50    271.80   81%2 o
   4  -4  -6  22300.00  18640.40    445.70   81%2 o
   4  -4  -5  37537.00  43164.30    583.80   81%2 o
   3  -3  -4  76274.00  68996.10    765.30   81%2 o
  -2   2   2  43911.00  63021.20    803.40   81%2 o
  -3   3   2  11638.00  10724.50    415.60   81%2 o
   8  -7   3    162.40    204.30     89.60   81%2 <
  -4   4   3   6586.00   5567.00    266.10   81%2 o
  -5   5   3    506.50    419.20    173.10   81%2 <
  -6   6   3   1763.00   1234.50    138.90   81%2 o
  -7   7   3    608.68    423.00     94.20   81%2 o
  -5   5   4   2446.50   1308.00    226.40   81%2 o
  -6   6   4    103.05     60.80    118.90   81%2 <
  -7   7   4    883.59   1139.10    119.70   81%2 o
   7  -6   5   1088.60    689.50    112.40   81%2 o
   7  -6   6    135.24    170.00     71.40   81%2 <
   6  -5   6   2499.70   1517.00    153.60   81%2 o
   6  -5   7    247.46    849.20    122.90   81%2 o
   5  -4   8    425.50    356.30    129.80   81%2 <
   4  -3   9    340.55    452.30    143.90   81%2 o
   3  -2  10   1787.50    926.40    165.40   81%2 o
   2  -1  11    751.90   2334.90    202.40   81%2 o
   0   1  12   3299.00   4168.20    254.70   81%2 o
   0   1  13   3284.00   4401.20    248.40   81%2 o
  -1   2  13   8764.70   8941.40    318.10   81%2 o
  -2   3  14   3341.20   2731.90    223.20   81%2 o
  -2   1 -14   1076.10    803.70    113.00   81%2 o
  -3   2 -13    142.49    369.90     99.10   81%2 o
  -4   3 -13     90.28    202.40     72.50   81%2 <
  -4   3 -12    314.42    148.30     87.20   81%2 <
  -5   4 -12    116.89    -44.80     70.10   81%2 <
  -5   4 -11    328.28    389.50     87.80   81%2 o
  -6   5 -11     35.26      7.60     60.50   81%2 <
  -6   5 -10     37.44    111.30     65.00   81%2 <
   8  -7   1    118.58    -57.90     75.40   81%2 <
   8  -7   2    336.29    244.80     81.20   81%2 o
   7  -6   3    285.91    -17.60     87.40   81%2 <
   7  -6   4    192.36    200.50    100.50   81%2 <
   6  -5   5   1277.50    888.90    140.70   81%2 o
  -7   7   5    984.62    386.10    101.10   81%2 o
   5  -4   6   1888.10   1228.70    161.60   81%2 o
   5  -4   7   1985.90   2010.80    174.10   81%2 o
   4  -3   8   5448.20   5245.30    245.20   81%2 o
   3  -2   9   2034.00   2792.10    202.10   81%2 o
   2  -1  10  21370.00  17305.50    381.20   81%2 o
   1   0  11   4176.10   6485.00    279.70   81%2 o
   0  -1 -17    159.17    268.60     97.30   82%2 <
  -1   0 -17     57.11     73.40     77.00   82%2 <
   0  -1 -16     82.60     80.60    113.00   82%2 <
  -2   1 -16     48.78     90.50     77.60   82%2 <
  -1   0 -15   1158.50   1257.30    133.90   82%2 o
  -2   1 -15    311.32     96.40     94.90   82%2 <
  -3   2 -15     82.99     27.60     64.70   82%2 <
  -2   1 -14   1040.30    803.70    113.00   82%2 o
  -3   2 -14    241.73    -23.80     86.20   82%2 <
  -4   3 -14     35.54     65.60     63.10   82%2 <
  -2   1 -13     80.52     34.90    149.90   82%2 <
  -3   2 -13    135.49    369.90     99.10   82%2 o
  -4   3 -13    104.47    202.40     72.50   82%2 <
  -5   4 -13    180.48     69.80     68.30   82%2 <
  -3   2 -12   4150.50   4159.20    211.20   82%2 o
  -4   3 -12    322.30    148.30     87.20   82%2 <
  -5   4 -12    122.65    -44.80     70.10   82%2 <
   6  -6 -11    612.73    716.70    155.30   82%2 o
  -4   3 -11    861.62    917.90    118.90   82%2 o
  -5   4 -11    335.25    389.50     87.80   82%2 o
  -6   5 -11     33.54      7.60     60.50   82%2 <
   6  -6 -10    411.06    183.90    135.10   82%2 <
  -5   4 -10    340.85    194.60     82.10   82%2 <
  -6   5 -10     35.94    111.30     65.00   82%2 <
   5  -5  -8   7497.00   9109.30    318.50   82%2 o
   4  -4  -6  22209.00  18640.40    445.70   82%2 o
   3  -3  -4  74471.00  68996.10    765.30   82%2 o
   8  -7   1    110.86    -57.90     75.40   82%2 <
   8  -7   2    335.33    244.80     81.20   82%2 o
  -2   2   2  43523.00  63021.20    803.40   82%2 o
   7  -6   3    287.40    -17.60     87.40   82%2 <
  -3   3   3   9714.80   9602.30    414.30   82%2 o
  -4   4   3   6487.80   5567.00    266.10   82%2 o
   7  -6   4    174.05    200.50    100.50   82%2 <
   6  -5   4   1157.70    683.90    140.90   82%2 o
  -4   4   4   5494.40   3666.40    277.20   82%2 o
  -5   5   4   2383.50   1308.00    226.40   82%2 o
  -6   6   4     99.98     60.80    118.90   82%2 <
  -7   7   4    860.92   1139.10    119.70   82%2 o
   6  -5   5   1238.40    888.90    140.70   82%2 o
  -5   5   5  12408.00  12480.20    355.10   82%2 o
  -6   6   5    462.89    411.80    126.70   82%2 o
  -7   7   5    971.66    386.10    101.10   82%2 o
   6  -5   6   2424.10   1517.00    153.60   82%2 o
   5  -4   6   1734.10   1228.70    161.60   82%2 o
  -7   7   6     91.40    156.80     92.10   82%2 <
   5  -4   7   2001.60   2010.80    174.10   82%2 o
   4  -3   7   1179.00   1129.00    198.10   82%2 o
   4  -3   8   5454.10   5245.30    245.20   82%2 o
   3  -2   9   2098.30   2792.10    202.10   82%2 o
   2  -1  10  20442.00  17305.50    381.20   82%2 o
   1   0  11   4703.30   6485.00    279.70   82%2 o
   0   1  12   3038.30   4168.20    254.70   82%2 o
  -1   2  13   8402.80   8941.40    318.10   82%2 o
  -3   2 -11    600.79    765.40    139.00   82%2 o
  -4   3 -10    842.19    899.00    128.10   82%2 o
  -5   4  -9    378.15    239.10    106.60   82%2 <
  -6   5  -9     80.72     -6.70     53.00   82%2 <
  -6   5  -8    601.56    467.70    104.30   82%2 o
  -7   6  -7   1050.50    471.40     92.80   82%2 o
   8  -7   0     68.13     91.30     81.30   82%2 <
   7  -6   2     48.03    192.00     88.60   82%2 <
   5  -4   5    538.66    541.90    153.70   82%2 o
   3  -2   8    778.14    718.30    147.40   82%2 o
   1  -2 -17   2263.20   1335.30    146.40   83%2 o
   0  -1 -16     90.30     80.60    113.00   83%2 <
   0  -1 -15   2130.70   2275.60    171.30   83%2 o
   0  -1 -14    154.94    515.10    145.20   83%2 o
  -1   0 -13   2561.10   3008.90    210.10   83%2 o
  -2   1 -13    111.38     34.90    149.90   83%2 <
   6  -6 -12    369.92    343.70    125.40   83%2 <
  -2   1 -12  28116.00  27469.30    466.50   83%2 o
   6  -6 -11    427.58    716.70    155.30   83%2 o
  -2   1 -11   2680.70   3175.40    256.40   83%2 o
  -3   2 -11    271.72    765.40    139.00   83%2 o
  -3   2 -10    741.01    703.40    181.40   83%2 o
  -4   3 -10    794.34    899.00    128.10   83%2 o
   5  -5  -9   3184.70   3655.00    240.20   83%2 o
  -4   3  -9    229.62    280.40    131.70   83%2 <
  -5   4  -9    181.84    239.10    106.60   83%2 <
  -5   4  -8   1128.90   1008.40    132.10   83%2 o
  -6   5  -8    632.23    467.70    104.30   83%2 o
   4  -4  -7  14729.00  19793.60    463.10   83%2 o
  -6   5  -7    282.17    318.60    101.40   83%2 o
  -7   6  -7    464.69    471.40     92.80   83%2 o
  -7   6  -6     82.89     76.20     71.80   83%2 <
   3  -3  -5  42111.00  42127.00    615.60   83%2 o
   8  -7  -1    703.45    658.40    108.40   83%2 o
   7  -6   1    143.90    355.90    103.90   83%2 o
   6  -5   3   2812.70   3313.60    195.30   83%2 o
   5  -4   5    514.03    541.90    153.70   83%2 o
  -4   4   5  39831.00  32242.00    525.30   83%2 o
  -5   5   5  10353.00  12480.20    355.10   83%2 o
   4  -3   6   7010.40   4723.90    266.70   83%2 o
  -6   6   6    235.67    151.60    117.70   83%2 <
  -7   7   6     87.25    156.80     92.10   83%2 <
  -7   7   7    241.29    278.60     90.40   83%2 o
   3  -2   8    429.07    718.30    147.40   83%2 o
   2  -1   9  13320.00  15221.00    377.20   83%2 o
   0   1  11   2441.30   3764.70    236.30   83%2 o
  -1   2  12   3574.20   4139.90    284.80   83%2 o
  -3   2  -9   2446.50   1771.90    172.40   83%2 o
  -4   3  -8   7885.60   6979.30    265.30   83%2 o
  -4   3  -7   2660.10   1746.40    184.40   83%2 o
  -5   4  -7    646.04   1403.40    151.60   83%2 o
  -5   4  -6   1646.20   1047.80    164.60   83%2 o
  -6   5  -6   1617.00   1590.10    150.60   83%2 o
  -6   5  -5    537.18   1430.70    152.60   83%2 o
  -7   6  -5    104.06     48.70     89.30   83%2 <
  -7   6  -4    887.16    412.50     95.50   83%2 o
   8  -7  -3     15.97    117.60     74.40   83%2 <
  -8   7  -3    378.15    411.00     77.80   83%2 o
   8  -7  -2    335.70    279.10     87.30   83%2 o
   7  -6  -1    407.77    577.50    132.10   83%2 o
   7  -6   0   1524.10   1473.70    136.40   83%2 o
   6  -5   1    730.32   1200.80    179.80   83%2 o
   6  -5   2   4563.20   3003.00    194.00   83%2 o
   5  -4   3   4100.40   4586.90    233.80   83%2 o
   5  -4   4   1420.80   1224.20    173.20   83%2 o
   4  -3   5   9343.30   8767.50    292.70   83%2 o
  -5   5   6   6696.50   7631.50    286.90   83%2 o
   3  -2   7    763.94    448.90    150.40   83%2 <
  -6   6   7    512.50    918.10    130.40   83%2 o
   6  -4  12     96.70    156.90     76.80   83%2 <
   5  -3  14     28.12    -10.10     68.60   83%2 <
   4  -2  15    134.08    157.00     78.50   83%2 <
   1  -2 -17    292.11   1335.30    146.40   84%2 o
   1  -2 -16    140.78    540.40    129.10   84%2 o
   0  -1 -15   1508.20   2275.60    171.30   84%2 o
   0  -1 -14    243.24    515.10    145.20   84%2 o
   0  -1 -13   3282.40   4190.00    237.70   84%2 o
  -1   0 -13   2137.20   3008.90    210.10   84%2 o
   6  -6 -12    302.37    343.70    125.40   84%2 <
  -1   0 -11   1820.50   1970.70    225.60   84%2 o
  -2   1 -11   2259.30   3175.40    256.40   84%2 o
  -2   1 -10  25077.00  24047.10    457.00   84%2 o
  -3   2 -10    673.90    703.40    181.40   84%2 o
   5  -5  -9   3298.70   3655.00    240.20   84%2 o
  -3   2  -9   1553.70   1771.90    172.40   84%2 o
  -4   3  -8   6848.10   6979.30    265.30   84%2 o
   4  -4  -7  19718.00  19793.60    463.10   84%2 o
  -4   3  -7   1228.10   1746.40    184.40   84%2 o
  -5   4  -7   1389.30   1403.40    151.60   84%2 o
  -5   4  -6   1059.20   1047.80    164.60   84%2 o
  -6   5  -6   1981.70   1590.10    150.60   84%2 o
  -7   6  -6    111.71     76.20     71.80   84%2 <
   3  -3  -5  40929.00  42127.00    615.60   84%2 o
  -6   5  -5   2293.10   1430.70    152.60   84%2 o
  -7   6  -5    118.96     48.70     89.30   84%2 <
  -7   6  -4    234.95    412.50     95.50   84%2 o
   8  -7  -3     74.91    117.60     74.40   84%2 <
  -8   7  -3    153.62    411.00     77.80   84%2 o
   8  -7  -2    230.14    279.10     87.30   84%2 o
   7  -6  -1    454.48    577.50    132.10   84%2 o
   7  -6   0   1339.70   1473.70    136.40   84%2 o
   6  -5   1    362.21   1200.80    179.80   84%2 o
   6  -5   2   2438.00   3003.00    194.00   84%2 o
   5  -4   3   4621.10   4586.90    233.80   84%2 o
   5  -4   4   1248.70   1224.20    173.20   84%2 o
   4  -3   5   9468.30   8767.50    292.70   84%2 o
  -4   4   5  33350.00  32242.00    525.30   84%2 o
   4  -3   6   3780.30   4723.90    266.70   84%2 o
  -5   5   6   6942.10   7631.50    286.90   84%2 o
  -6   6   6    298.15    151.60    117.70   84%2 <
   3  -2   7    264.93    448.90    150.40   84%2 <
  -6   6   7    741.01    918.10    130.40   84%2 o
  -7   7   7    229.26    278.60     90.40   84%2 o
   2  -1   8    753.31   1202.70    211.90   84%2 o
  -7   7   8    568.95    339.50    112.20   84%2 o
   1   0   9  23910.00  22040.10    446.10   84%2 o
   0   1  11   4152.70   3764.70    236.30   84%2 o
   6  -4  12     67.42    156.90     76.80   84%2 <
  -1   2  12   6120.70   4139.90    284.80   84%2 o
  -2   3  13  11011.00  10527.50    356.60   84%2 o
   5  -3  14     92.41    -10.10     68.60   84%2 <
   4  -2  15    388.48    157.00     78.50   84%2 <
   3  -1  16    495.35    530.80    102.60   84%2 o
  -3   2  -8    823.83    851.80    149.10   84%2 o
  -4   3  -6   7088.30   5313.50    239.00   84%2 o
  -5   4  -5    462.03    302.90    146.30   84%2 <
   8  -7  -4      7.03     53.20     67.90   84%2 <
  -6   5  -4    768.55    709.80    126.90   84%2 o
  -7   6  -3    446.35    215.80     87.10   84%2 <
  -8   7  -2    238.27     90.80     78.50   84%2 <
   3  -2   6   5742.40   6852.30    267.50   84%2 o
   6  -4  11    110.05     47.00     78.20   84%2 <
   5  -3  13     73.04     54.10     61.50   84%2 <
   4  -2  14     67.24    173.90     72.50   84%2 <
   2  -3 -17    320.14    284.90    125.20   85%2 <
   1  -2 -15   1825.90   1274.80    168.60   85%2 o
   0  -1 -13   3090.30   4190.00    237.70   85%2 o
   6  -6 -12    322.06    343.70    125.40   85%2 <
   0  -1 -12   2591.50   2273.40    230.60   85%2 o
  -1   0 -11   2452.80   1970.70    225.60   85%2 o
   5  -5 -10    200.07    259.50    154.30   85%2 <
  -2   1  -9  15676.00  16489.50    381.30   85%2 o
  -3   2  -8    681.06    851.80    149.10   85%2 o
  -3   2  -7    394.45    417.70    176.80   85%2 <
  -4   3  -7    881.14   1746.40    184.40   85%2 o
  -4   3  -6   7397.60   5313.50    239.00   85%2 o
   8  -7  -5     14.69     26.60     79.90   85%2 <
  -5   4  -5    708.06    302.90    146.30   85%2 <
   8  -7  -4     11.98     53.20     67.90   85%2 <
  -6   5  -4    693.69    709.80    126.90   85%2 o
  -6   5  -3   2100.70   2538.20    198.40   85%2 o
  -7   6  -3    584.47    215.80     87.10   85%2 <
   7  -6  -2    135.49    211.80     92.60   85%2 <
  -7   6  -2    193.25    159.20     89.80   85%2 <
  -8   7  -2    240.01     90.80     78.50   85%2 <
   7  -6  -1    358.89    577.50    132.10   85%2 o
  -8   7  -1     75.71     24.00     69.00   85%2 <
   6  -5   0   3495.10   3704.70    241.80   85%2 o
   6  -5   1    485.77   1200.80    179.80   85%2 o
   5  -4   2   1167.10   1288.80    195.60   85%2 o
   5  -4   3   4882.50   4586.90    233.80   85%2 o
  -2   2   3  67540.00  84777.80    898.50   85%2 o
   4  -3   4   1529.20   1488.50    170.00   85%2 o
  -4   4   5  34885.00  32242.00    525.30   85%2 o
   3  -2   6   7932.30   6852.30    267.50   85%2 o
  -5   5   6   7592.10   7631.50    286.90   85%2 o
   2  -1   7  23432.00  24745.50    467.40   85%2 o
  -6   6   7    819.71    918.10    130.40   85%2 o
  -6   6   8    322.81    124.10    130.00   85%2 <
  -7   7   8    529.27    339.50    112.20   85%2 o
   1   0   9  23050.00  22040.10    446.10   85%2 o
  -7   7   9    112.75    299.80     98.70   85%2 o
   0   1  10   9264.50   8565.40    325.40   85%2 o
   6  -4  11    121.22     47.00     78.20   85%2 <
   5  -3  12     13.94     67.60     74.00   85%2 <
   5  -3  13     79.72     54.10     61.50   85%2 <
   4  -2  14     58.50    173.90     72.50   85%2 <
   3  -1  15     15.56     48.60     85.20   85%2 <
   3  -1  16    634.56    530.80    102.60   85%2 o
   2   0  16     72.07     33.80     82.00   85%2 <
  -2   1  -8    698.50    989.30    198.50   85%2 o
  -4   3  -5  10039.00  10072.00    295.00   85%2 o
  -5   4  -4   1005.10    414.70    158.80   85%2 <
   7  -6  -3    538.51    326.10     99.60   85%2 o
  -6   5  -2   3004.50   2981.90    179.40   85%2 o
   6  -5  -1  10943.00   9627.50    306.80   85%2 o
  -7   6  -1    171.00    439.80     98.90   85%2 o
  -8   7   0     56.67    345.90     79.90   85%2 o
   3  -2   5   1116.00   1457.80    237.40   85%2 o
   7  -5   7     59.73     64.30     88.40   85%2 <
   7  -5   8     25.87     49.10     77.20   85%2 <
   6  -4   9     56.96     57.10     84.20   85%2 <
   6  -4  10     18.12    134.90     79.40   85%2 <
   5  -3  11    140.23     27.20     93.60   85%2 <
   4  -2  13    327.33    281.20     85.50   85%2 o
   1   1  17    124.29      7.30     82.80   85%2 <
   2  -3 -16    293.36    917.40    149.00   86%2 o
   1  -2 -14   3914.70   3116.20    234.10   86%2 o
   0  -1 -12   3384.70   2273.40    230.60   86%2 o
   5  -5 -11    809.40    698.20    173.20   86%2 o
   0  -1 -11   8227.40   8015.70    306.80   86%2 o
  -2   1  -8    591.98    989.30    198.50   86%2 o
   3  -3  -6  23388.00  24319.30    519.00   86%2 o
  -3   2  -6   9009.60   8419.40    298.70   86%2 o
   7  -6  -4    728.78   1142.00    128.20   86%2 o
  -5   4  -3   3547.50   4398.00    243.50   86%2 o
  -6   5  -2   2794.60   2981.90    179.40   86%2 o
   6  -5  -1  12902.00   9627.50    306.80   86%2 o
   5  -4   1    243.94    136.30    175.60   86%2 <
  -8   7   1    408.86    531.80    107.20   86%2 o
   4  -3   3     86.96    383.30    196.50   86%2 <
   3  -2   5   1774.80   1457.80    237.40   86%2 o
  -3   3   5  23817.00  26303.50    519.20   86%2 o
  -4   4   6  22969.00  25702.70    505.60   86%2 o
   7  -5   7     27.13     64.30     88.40   86%2 <
  -5   5   7   2765.40   1522.20    210.00   86%2 o
   6  -4   9     60.66     57.10     84.20   86%2 <
  -6   6   9   2344.10   2062.40    171.90   86%2 o
  -1   2  11   4462.80   4851.40    304.30   86%2 o
   4  -2  12    139.90    161.70    104.90   86%2 <
   3  -1  14   1126.00   1094.60    130.20   86%2 o
   1   1  17    135.69      7.30     82.80   86%2 <
  -5   3 -14     48.89    105.70     68.00   86%2 <
  -6   4 -12    522.28    378.30     75.00   86%2 o
  -1   0  -9  21876.00  20047.70    410.50   86%2 o
  -2   1  -7  21984.00  27302.40    463.70   86%2 o
   7  -6  -5    247.05    774.90    120.60   86%2 o
  -3   2  -5   1251.70   1823.50    235.30   86%2 o
  -4   3  -4   1658.80   1421.60    171.60   86%2 o
   6  -5  -2   1920.60   1942.10    176.80   86%2 o
  -5   4  -2   4974.50   3246.50    198.10   86%2 o
  -6   5  -1    375.30    783.90    141.60   86%2 o
   5  -4   0    830.38   1968.80    201.00   86%2 o
  -7   6   0    706.24    604.50    105.40   86%2 o
  -7   6   1    788.67    683.50    118.40   86%2 o
   4  -3   2  14269.00  13851.40    366.80   86%2 o
  -8   7   2    224.05    266.70     73.70   86%2 o
   8  -6   4     57.96     50.80     77.00   86%2 <
   3  -2   4  31887.00  31305.00    512.70   86%2 o
   7  -5   6    936.48   1025.50    124.40   86%2 o
   2  -1   6   2068.90   3116.80    276.10   86%2 o
   6  -4   8    364.60    350.20    106.70   86%2 o
   5  -3  10   2469.00   2358.50    162.60   86%2 o
   3  -1  13    775.56    547.30    112.40   86%2 o
   1   1  16    393.03    520.10    100.60   86%2 o
  -4   2 -15    174.77     60.00     68.60   86%2 <
  -5   3 -13    170.64     49.50     69.10   86%2 <
  -6   4 -11     49.65     57.10     66.30   86%2 <
  -4   3  -3    341.43    659.80    159.10   86%2 o
  -6   5   0   4016.30   3728.00    202.30   86%2 o
   8  -6   3     28.15     17.80     58.90   86%2 <
   7  -5   5    816.96    454.50    116.80   86%2 o
   6  -4   7    297.45    599.80    121.20   86%2 o
   5  -3   9    603.15    825.10    129.10   86%2 o
   4  -2  11    708.57    840.70    122.20   86%2 o
   2  -3 -16    295.37    917.40    149.00   87%2 o
   1  -2 -13  13380.00   8171.90    317.70   87%2 o
  -6   4 -12    472.66    378.30     75.00   87%2 o
   0  -1 -11   8214.10   8015.70    306.80   87%2 o
   4  -4  -9  19538.00  19540.40    458.20   87%2 o
  -1   0  -9  19488.00  20047.70    410.50   87%2 o
  -2   1  -7  22254.00  27302.40    463.70   87%2 o
   7  -6  -5    358.07    774.90    120.60   87%2 o
  -3   2  -5   1250.10   1823.50    235.30   87%2 o
  -5   4  -2   5343.00   3246.50    198.10   87%2 o
   5  -4   0    749.47   1968.80    201.00   87%2 o
  -7   6   1    746.15    683.50    118.40   87%2 o
   4  -3   2  12859.00  13851.40    366.80   87%2 o
  -8   7   2    250.68    266.70     73.70   87%2 o
   3  -2   4  30659.00  31305.00    512.70   87%2 o
  -3   3   5  22725.00  26303.50    519.20   87%2 o
   2  -1   6   1960.50   3116.80    276.10   87%2 o
  -5   5   8    373.41    413.00    160.70   87%2 <
   0   1   9   1865.20   4239.50    271.90   87%2 o
  -6   6   9   2131.80   2062.40    171.90   87%2 o
   3  -1  13    726.54    547.30    112.40   87%2 o
   1   1  16    405.81    520.10    100.60   87%2 o
   0   2  17     62.04    129.40     90.30   87%2 <
  -3   1 -16    391.24    334.70     86.70   87%2 o
  -4   2 -15    161.37     60.00     68.60   87%2 <
  -4   2 -14    129.49     52.70     73.60   87%2 <
  -5   3 -13    182.98     49.50     69.10   87%2 <
  -5   3 -12     57.71    107.00     73.80   87%2 <
  -6   4 -11     45.61     57.10     66.30   87%2 <
  -6   4 -10     44.46     17.50     74.00   87%2 <
   7  -6  -6     37.32    268.40     98.30   87%2 <
  -2   1  -6  28019.00  19533.80    431.10   87%2 o
   6  -5  -3    970.94   1201.00    170.60   87%2 o
  -4   3  -3    345.37    659.80    159.10   87%2 o
   5  -4  -1    367.95    939.30    179.60   87%2 o
  -5   4  -1   3210.70   3290.20    219.40   87%2 o
  -6   5   0   3997.30   3728.00    202.30   87%2 o
   8  -6   2    462.60    584.00    107.90   87%2 o
  -7   6   2    108.61    203.70    104.50   87%2 <
   8  -6   3     26.42     17.80     58.90   87%2 <
  -8   7   3     27.90     37.20     65.00   87%2 <
   7  -5   4    845.32    868.30    132.20   87%2 o
   7  -5   5    792.92    454.50    116.80   87%2 o
   6  -4   7    284.03    599.80    121.20   87%2 o
   1   0   7  22701.00  24168.50    495.10   87%2 o
   5  -3   9    568.26    825.10    129.10   87%2 o
   4  -2  11    649.00    840.70    122.20   87%2 o
   3  -1  12    160.62    399.20    133.20   87%2 <
   2   0  14     84.73    113.00     84.40   87%2 <
   1   1  15     81.59     22.10     92.70   87%2 <
  -3   1 -15    145.17     96.90     75.40   87%2 <
  -4   2 -13   1233.00    813.10    104.50   87%2 o
  -5   3 -11    260.64   1232.60    120.90   87%2 o
  -6   4  -9     63.50    147.40     81.50   87%2 <
  -7   5  -8     28.82     86.90     50.90   87%2 <
  -7   5  -7    130.91    153.40     76.00   87%2 <
  -3   2  -4  28141.00  31077.40    487.10   87%2 o
  -4   3  -2  10671.00  11899.90    325.30   87%2 o
   8  -6   1     84.73     14.80     81.80   87%2 <
   4  -3   1   1327.70   1213.00    190.70   87%2 o
  -6   5   1   5619.90   4990.60    254.40   87%2 o
  -8   7   4     59.45    113.90     67.30   87%2 <
   6  -4   6   2718.90   2083.10    166.20   87%2 o
   5  -3   8   2510.00   1367.00    171.00   87%2 o
   4  -2  10    533.23    975.50    154.60   87%2 o
   2  -3 -16    460.37    917.40    149.00   88%2 o
  -3   1 -16    385.43    334.70     86.70   88%2 o
  -4   2 -15    195.85     60.00     68.60   88%2 <
  -4   2 -14    130.99     52.70     73.60   88%2 <
  -5   3 -14     58.63    105.70     68.00   88%2 <
   1  -2 -13  14905.00   8171.90    317.70   88%2 o
  -5   3 -13    133.28     49.50     69.10   88%2 <
  -5   3 -12     65.37    107.00     73.80   88%2 <
  -6   4 -12    505.36    378.30     75.00   88%2 o
   5  -5 -11    693.05    698.20    173.20   88%2 o
   0  -1 -11   6803.20   8015.70    306.80   88%2 o
  -6   4 -11     74.83     57.10     66.30   88%2 <
  -6   4 -10     38.15     17.50     74.00   88%2 <
  -1   0  -9  25146.00  20047.70    410.50   88%2 o
  -2   1  -7  18765.00  27302.40    463.70   88%2 o
   7  -6  -6    113.71    268.40     98.30   88%2 <
  -2   1  -6  20174.00  19533.80    431.10   88%2 o
   7  -6  -5    290.56    774.90    120.60   88%2 o
  -3   2  -5   1461.70   1823.50    235.30   88%2 o
   6  -5  -3   1212.60   1201.00    170.60   88%2 o
  -4   3  -3    299.22    659.80    159.10   88%2 o
   6  -5  -2   1937.80   1942.10    176.80   88%2 o
  -5   4  -2   3157.60   3246.50    198.10   88%2 o
   5  -4  -1    256.77    939.30    179.60   88%2 o
  -5   4  -1   3425.10   3290.20    219.40   88%2 o
   5  -4   0    882.30   1968.80    201.00   88%2 o
  -6   5   0   3911.10   3728.00    202.30   88%2 o
  -7   6   1    709.76    683.50    118.40   88%2 o
   8  -6   2    399.62    584.00    107.90   88%2 o
   4  -3   2  15330.00  13851.40    366.80   88%2 o
  -7   6   2    115.61    203.70    104.50   88%2 <
  -8   7   2    128.80    266.70     73.70   88%2 o
   8  -6   3     25.27     17.80     58.90   88%2 <
  -8   7   3     32.77     37.20     65.00   88%2 <
   7  -5   4    624.10    868.30    132.20   88%2 o
   3  -2   4  30122.00  31305.00    512.70   88%2 o
   7  -5   5    741.56    454.50    116.80   88%2 o
  -3   3   5  23668.00  26303.50    519.20   88%2 o
   2  -1   6   2398.20   3116.80    276.10   88%2 o
   6  -4   7    224.48    599.80    121.20   88%2 o
  -5   5   8    345.26    413.00    160.70   88%2 <
   5  -3   9    572.32    825.10    129.10   88%2 o
   0   1   9   1897.20   4239.50    271.90   88%2 o
  -6   6   9   2341.40   2062.40    171.90   88%2 o
   4  -2  11    959.24    840.70    122.20   88%2 o
   3  -1  12    163.84    399.20    133.20   88%2 <
   3  -1  13    710.08    547.30    112.40   88%2 o
   2   0  14     74.10    113.00     84.40   88%2 <
   1   1  15     58.26     22.10     92.70   88%2 <
   1   1  16    364.15    520.10    100.60   88%2 o
   0   2  17     57.84    129.40     90.30   88%2 <
  -4   2 -13    911.62    813.10    104.50   88%2 o
  -5   3 -11    247.76   1232.60    120.90   88%2 o
  -6   4  -9     50.99    147.40     81.50   88%2 <
  -7   5  -8     26.99     86.90     50.90   88%2 <
  -3   2  -4  29279.00  31077.40    487.10   88%2 o
  -6   5   1   5047.20   4990.60    254.40   88%2 o
   6  -4   6   3343.90   2083.10    166.20   88%2 o
   5  -3   8   1573.20   1367.00    171.00   88%2 o
   4  -2  10   1018.60    975.50    154.60   88%2 o
   2  -3 -15   2848.70   1564.90    196.20   89%2 o
  -3   1 -15    114.57     96.90     75.40   89%2 <
  -3   1 -14    865.76    963.00    125.40   89%2 o
   1  -2 -13  10871.00   8171.90    317.70   89%2 o
  -4   2 -13   1219.50    813.10    104.50   89%2 o
   5  -5 -12    283.87    288.40    162.30   89%2 <
  -4   2 -12    148.17    582.60    103.10   89%2 o
  -5   3 -11    305.84   1232.60    120.90   89%2 o
   0  -1 -10   2483.00   3662.10    274.90   89%2 o
  -5   3 -10   2367.40   1365.10    141.10   89%2 o
   4  -4  -9  17642.00  19540.40    458.20   89%2 o
  -6   4  -9     72.49    147.40     81.50   89%2 <
  -6   4  -8     54.13    413.40    104.50   89%2 o
  -7   5  -8     28.75     86.90     50.90   89%2 <
   7  -6  -7   1524.50    889.80    134.60   89%2 o
  -7   5  -7    140.82    153.40     76.00   89%2 <
   7  -6  -6     34.31    268.40     98.30   89%2 <
  -2   1  -6  27219.00  19533.80    431.10   89%2 o
   6  -5  -4     74.24    187.60    111.50   89%2 <
  -3   2  -4  25599.00  31077.40    487.10   89%2 o
   5  -4  -2   1394.50   1553.70    195.40   89%2 o
  -4   3  -2   9967.30  11899.90    325.30   89%2 o
   5  -4  -1    377.05    939.30    179.60   89%2 o
  -5   4   0   3466.80   3461.50    203.20   89%2 o
   8  -6   1     76.54     14.80     81.80   89%2 <
   4  -3   1   1089.50   1213.00    190.70   89%2 o
  -6   5   1   5337.80   4990.60    254.40   89%2 o
  -7   6   2     92.75    203.70    104.50   89%2 <
   7  -5   3    486.80    318.90    114.70   89%2 <
   3  -2   3   1387.90   1966.20    232.40   89%2 o
  -7   6   3    452.47    840.60    119.30   89%2 o
   7  -5   4    811.99    868.30    132.20   89%2 o
  -8   7   4     51.73    113.90     67.30   89%2 <
   6  -4   5    868.21    707.60    150.40   89%2 o
   2  -1   5   2875.00   3866.80    263.60   89%2 o
   6  -4   6   2168.70   2083.10    166.20   89%2 o
   1   0   7  20986.00  24168.50    495.10   89%2 o
  -4   4   7  28436.00  27538.40    514.20   89%2 o
   5  -3   8   2578.00   1367.00    171.00   89%2 o
   4  -2  10    376.47    975.50    154.60   89%2 o
  -6   6  10    158.11    206.60    122.00   89%2 <
   3  -1  11    834.44   1329.50    178.30   89%2 o
   3  -1  12    155.17    399.20    133.20   89%2 <
  -2   3  12   1359.90   2867.50    301.90   89%2 o
   1   1  15     83.24     22.10     92.70   89%2 <
   0   2  16    444.92    426.10    110.90   89%2 o
  -2   0 -16     21.68     -8.40     70.60   89%2 <
  -4   2 -11    222.63    281.80    102.60   89%2 <
  -5   3  -9    783.72    527.80    120.20   89%2 o
  -6   4  -7    307.10    354.80    110.30   89%2 o
  -7   5  -6    872.42    904.80    105.20   89%2 o
  -8   6  -4    155.00    159.10     75.90   89%2 <
   8  -6   0     36.40     54.30     81.50   89%2 <
   7  -5   2    119.70    254.30     96.70   89%2 <
  -6   5   2   1002.20   1367.40    153.40   89%2 o
  -8   7   5     75.23    145.40     66.70   89%2 <
   5  -3   7   6651.70   5279.00    225.60   89%2 o
   4  -2   9   1873.30   3223.80    204.20   89%2 o
  -2   0 -16     15.91     -8.40     70.60   90%2 <
   2  -3 -15   1914.30   1564.90    196.20   90%2 o
  -3   1 -13    940.44    564.20    119.90   90%2 o
   1  -2 -12   2109.10   2037.10    253.10   90%2 o
  -4   2 -11    313.52    281.80    102.60   90%2 <
   0  -1  -9   3139.50   3472.70    263.10   90%2 o
  -5   3  -9    607.54    527.80    120.20   90%2 o
   7  -6  -8    745.94    696.80    134.60   90%2 o
   3  -3  -7  12116.00  15743.30    470.00   90%2 o
  -1   0  -7  37426.00  31019.80    532.10   90%2 o
  -6   4  -7    289.14    354.80    110.30   90%2 o
   6  -5  -5   2602.80   1419.20    164.20   90%2 o
  -2   1  -5  12127.00  11853.90    369.30   90%2 o
  -7   5  -5    664.05    514.50    108.80   90%2 o
  -3   2  -3   1743.30   1092.40    264.60   90%2 o
   8  -6  -1    158.14    108.00    104.80   90%2 <
  -4   3  -1   1882.90   2116.10    220.50   90%2 o
   4  -3   0   5341.20   6408.30    282.40   90%2 o
   7  -5   2     73.56    254.30     96.70   90%2 <
   6  -4   4   4100.60   4942.80    230.40   90%2 o
  -7   6   4   1389.20    964.90    121.40   90%2 o
   0   1   8   5923.60   4539.60    310.10   90%2 o
  -5   5   9   3212.40   4271.20    237.70   90%2 o
  -1   2  10  15658.00  16140.20    444.40   90%2 o
  -6   6  11    521.93    215.80    112.80   90%2 <
   6  -3  12    117.10     81.50     83.60   90%2 <
   2   0  12    387.98    494.80    156.80   90%2 o
   5  -2  14    317.73    154.90     79.40   90%2 <
   1   1  14    196.16    388.10    127.00   90%2 o
   0   2  16    309.96    426.10    110.90   90%2 o
  -1   3  17    424.90    325.00    122.00   90%2 <
  -1  -1 -17     90.23     58.00     82.40   90%2 <
  -2   0 -14    162.32    307.20    103.40   90%2 <
  -3   1 -12    127.10    184.30    101.40   90%2 <
  -4   2 -10   1428.10   1506.50    148.00   90%2 o
  -5   3  -8   1484.60    957.30    160.00   90%2 o
   6  -5  -6    103.35    845.40    144.60   90%2 o
  -6   4  -6   2584.90   2242.40    178.70   90%2 o
  -7   5  -4    552.65    658.50    118.50   90%2 o
   5  -4  -3    690.19    700.90    185.50   90%2 o
  -8   6  -3     54.21     81.00     58.80   90%2 <
   8  -6  -2    174.20    -21.30     84.20   90%2 <
  -8   6  -2    450.08    349.80     98.60   90%2 o
   7  -5   1    799.48    678.20    123.00   90%2 o
  -5   4   1    131.86    660.50    139.70   90%2 o
   3  -2   2  32543.00  32331.90    524.80   90%2 o
   6  -4   3   2994.80   2927.40    196.80   90%2 o
  -6   5   3   1116.40   1673.10    169.60   90%2 o
  -7   6   5    369.16    222.20    102.80   90%2 <
   5  -3   6   1422.20   2341.10    206.70   90%2 o
   4  -2   8    656.50   1585.70    178.30   90%2 o
   7  -4   9    303.59     93.90     89.00   90%2 <
   3  -1  10    760.65   1051.20    159.90   90%2 o
   6  -3  11    120.26    532.40     96.70   90%2 o
   5  -2  13    132.93     34.20     78.00   90%2 <
   4  -1  15    230.12     55.20     78.00   90%2 <
  -5   3  -7   6250.80   5465.30    250.00   90%2 o
  -6   4  -5   1797.50   2154.90    179.20   90%2 o
  -7   5  -3    417.85    486.00    106.50   90%2 o
   5  -3   5   1503.40   1430.80    173.60   90%2 o
  -1  -1 -17     93.82     58.00     82.40   91%2 <
  -2   0 -14    117.25    307.20    103.40   91%2 <
  -3   1 -12    143.10    184.30    101.40   91%2 <
   4  -4 -10   7370.40   6308.10    341.70   91%2 o
  -4   2 -10   1296.20   1506.50    148.00   91%2 o
   7  -6  -9    438.38    416.00    106.50   91%2 o
   0  -1  -9   2948.60   3472.70    263.10   91%2 o
   6  -5  -6    169.74    845.40    144.60   91%2 o
  -7   5  -4    610.31    658.50    118.50   91%2 o
   5  -4  -3    721.43    700.90    185.50   91%2 o
   8  -6  -2    179.67    -21.30     84.20   91%2 <
  -8   6  -2    433.02    349.80     98.60   91%2 o
  -4   3   0  16018.00  13920.10    378.20   91%2 o
   6  -4   3   3067.20   2927.40    196.80   91%2 o
  -6   5   3   1466.10   1673.10    169.60   91%2 o
  -7   6   5    363.77    222.20    102.80   91%2 <
  -3   3   6  21550.00  26634.80    524.60   91%2 o
   0   1   8   7907.90   4539.60    310.10   91%2 o
  -4   4   8  15399.00  13566.50    405.40   91%2 o
   7  -4   9    362.39     93.90     89.00   91%2 <
   6  -3  11    176.86    532.40     96.70   91%2 o
  -6   6  11    302.45    215.80    112.80   91%2 <
   5  -2  13    103.51     34.20     78.00   91%2 <
   4  -1  15    206.47     55.20     78.00   91%2 <
   0   2  15    668.33    223.80    127.10   91%2 <
  -1   3  17    202.52    325.00    122.00   91%2 <
  -1  -1 -16    588.28    487.80    100.30   91%2 o
  -3   1 -11    967.34   1852.90    165.40   91%2 o
  -4   2  -9   1177.70    831.00    149.00   91%2 o
  -5   3  -7   5690.20   5465.30    250.00   91%2 o
  -6   4  -5   2145.40   2154.90    179.20   91%2 o
  -2   1  -4  64515.00  65936.00    730.70   91%2 o
   8  -6  -3     95.55     94.90     76.40   91%2 <
  -7   5  -3    369.05    486.00    106.50   91%2 o
  -3   2  -2  27787.00  28992.00    518.20   91%2 o
   4  -3  -1   2707.20   3234.40    242.70   91%2 o
  -8   6  -1    137.49    252.10     73.80   91%2 o
   7  -5   0    415.83    543.30    112.80   91%2 o
   6  -4   2   2699.10   2994.70    226.90   91%2 o
  -5   4   2    555.99    974.80    178.30   91%2 o
  -6   5   4    298.22    426.70    139.10   91%2 o
   8  -5   5      9.37    -80.50     75.20   91%2 <
   5  -3   5   1530.70   1430.80    173.60   91%2 o
   4  -2   7  12885.00  13094.00    332.00   91%2 o
   7  -4   8     13.12     93.40     84.50   91%2 <
   3  -1   9    256.58    382.90    174.00   91%2 <
   6  -3  10    946.15    867.80    118.00   91%2 o
   5  -2  12    597.98    620.30    104.90   91%2 o
   1   1  13    917.50   1340.70    159.60   91%2 o
   4  -1  14     84.19     62.50     94.40   91%2 <
  -5   3  -6   1489.60   2493.00    191.90   91%2 o
  -6   4  -4   5791.80   4890.00    234.10   91%2 o
  -7   5  -2    886.54    441.40    115.10   91%2 o
   7  -4   7    517.01    460.60    109.70   91%2 o
  -1  -1 -16    507.42    487.80    100.30   92%2 o
   2  -3 -14    658.39    771.30    190.30   92%2 o
  -2   0 -14    102.86    307.20    103.40   92%2 <
   5  -5 -13   2728.20   1810.90    206.00   92%2 o
  -3   1 -11    982.33   1852.90    165.40   92%2 o
   7  -6 -10     24.11    260.30    109.00   92%2 <
   4  -4 -10   7286.70   6308.10    341.70   92%2 o
   7  -6  -9    439.82    416.00    106.50   92%2 o
   0  -1  -9   2939.30   3472.70    263.10   92%2 o
  -4   2  -9   1159.30    831.00    149.00   92%2 o
  -5   3  -7   5658.60   5465.30    250.00   92%2 o
   6  -5  -6    166.29    845.40    144.60   92%2 o
  -6   4  -5   2230.20   2154.90    179.20   92%2 o
   5  -4  -4   8013.20  10049.70    318.30   92%2 o
  -2   1  -4  64718.00  65936.00    730.70   92%2 o
   8  -6  -3     73.47     94.90     76.40   92%2 <
  -7   5  -3    345.48    486.00    106.50   92%2 o
  -3   2  -2  27869.00  28992.00    518.20   92%2 o
   4  -3  -1   2741.30   3234.40    242.70   92%2 o
  -8   6  -1    142.04    252.10     73.80   92%2 o
   7  -5   0    408.81    543.30    112.80   92%2 o
  -4   3   0  15898.00  13920.10    378.20   92%2 o
   6  -4   2   2735.50   2994.70    226.90   92%2 o
  -5   4   2    578.68    974.80    178.30   92%2 o
  -6   5   4    249.71    426.70    139.10   92%2 o
   8  -5   5     10.06    -80.50     75.20   92%2 <
   5  -3   5   1530.80   1430.80    173.60   92%2 o
  -7   6   6    476.97    280.30    100.50   92%2 <
   4  -2   7  12976.00  13094.00    332.00   92%2 o
   7  -4   8     11.98     93.40     84.50   92%2 <
  -4   4   8  16182.00  13566.50    405.40   92%2 o
   3  -1   9    238.89    382.90    174.00   92%2 <
   6  -3  10    945.49    867.80    118.00   92%2 o
  -6   6  11    276.31    215.80    112.80   92%2 <
   5  -2  12    599.57    620.30    104.90   92%2 o
   1   1  13    898.04   1340.70    159.60   92%2 o
   4  -1  14     93.97     62.50     94.40   92%2 <
   0   2  15    565.96    223.80    127.10   92%2 <
  -6   3 -12    176.42     81.30     73.90   92%2 <
  -3   1 -10    857.72    806.00    149.90   92%2 o
  -4   2  -8    962.02   1098.60    164.10   92%2 o
   6  -5  -7    264.37    253.20    110.50   92%2 <
  -5   3  -6   1485.80   2493.00    191.90   92%2 o
   8  -6  -4    101.30    213.70     78.00   92%2 <
  -6   4  -4   5979.30   4890.00    234.10   92%2 o
  -7   5  -2    854.61    441.40    115.10   92%2 o
   7  -5  -1    214.23    388.30     99.80   92%2 o
  -8   6   0     16.01     68.30     68.70   92%2 <
   3  -2   1  16848.00  16975.20    396.10   92%2 o
   8  -5   4    407.21    241.70     93.00   92%2 <
   5  -3   4   1952.60   2158.00    181.80   92%2 o
   7  -4   7    514.33    460.60    109.70   92%2 o
   6  -3   9    778.32    704.60    115.00   92%2 o
   5  -2  11    465.76    391.20    100.90   92%2 o
  -1  -1 -15    189.75    129.20     93.70   93%2 <
  -2   0 -12    238.16    172.00    157.20   93%2 <
  -6   3 -12    195.87     81.30     73.90   93%2 <
   1  -2 -11   3636.10   4280.20    289.90   93%2 o
   7  -6 -10     40.38    260.30    109.00   93%2 <
  -3   1 -10    864.84    806.00    149.90   93%2 o
   0  -1  -8   3982.20   3210.00    281.00   93%2 o
  -4   2  -8   1065.20   1098.60    164.10   93%2 o
   6  -5  -7    270.09    253.20    110.50   93%2 <
   8  -6  -4    105.05    213.70     78.00   93%2 <
   5  -4  -4   8377.50  10049.70    318.30   93%2 o
   7  -5  -1    207.49    388.30     99.80   93%2 o
   3  -2   1  16604.00  16975.20    396.10   93%2 o
  -4   3   1   1680.50   2076.00    218.30   93%2 o
   2  -1   3   1517.50   3409.50    324.60   93%2 o
  -5   4   3    653.64   1232.10    208.40   93%2 o
   8  -5   4    399.09    241.70     93.00   93%2 <
   5  -3   4   1945.60   2158.00    181.80   93%2 o
   4  -2   6    952.31    732.40    203.80   93%2 o
  -7   6   6    394.55    280.30    100.50   93%2 <
   6  -3   9    805.37    704.60    115.00   93%2 o
  -5   5  10    381.93    199.80    156.30   93%2 <
   5  -2  11    517.82    391.20    100.90   93%2 o
  -6   6  12    442.27    616.40    134.30   93%2 o
   4  -1  13     71.35     41.40     97.80   93%2 <
   0   2  14   2215.70   1314.70    181.40   93%2 o
   3   0  15    102.89     -0.90     89.80   93%2 <
  -1   3  16   1431.30   1292.60    153.60   93%2 o
   0  -2 -17     61.28    168.10     77.30   93%2 <
  -5   2 -14    331.42     -8.70     65.30   93%2 <
  -5   2 -13    112.78      8.10     69.50   93%2 <
  -6   3 -11    131.67    186.20     77.60   93%2 <
  -3   1  -9    103.43    361.10    159.10   93%2 <
  -7   4  -9    138.55    397.70     82.70   93%2 o
  -4   2  -7  14625.00  11816.70    332.50   93%2 o
   8  -6  -5     86.08     58.90     91.30   93%2 <
  -5   3  -5   1564.00   1564.30    167.00   93%2 o
  -6   4  -3   3115.30   2654.60    183.60   93%2 o
   7  -5  -2    527.08    472.20    110.30   93%2 o
   4  -3  -2   2483.00   2337.10    223.70   93%2 o
  -3   2  -1  14699.00  15385.20    413.70   93%2 o
  -7   5  -1    686.51    555.80    115.80   93%2 o
   6  -4   1    988.99    890.00    157.40   93%2 o
  -8   6   1     81.97     64.20     65.60   93%2 <
   8  -5   3     57.35    120.30     75.40   93%2 <
   5  -3   3    820.02    595.70    163.40   93%2 o
  -6   5   5    652.71   1029.00    147.30   93%2 o
   7  -4   6     80.59    132.80     91.50   93%2 <
  -7   6   7   2437.60   1477.70    153.40   93%2 o
   6  -3   8     52.90    147.20     98.60   93%2 <
   3  -1   8   2874.50   3132.20    197.90   93%2 o
   5  -2  10    205.88     48.90     99.60   93%2 <
   2   0  10   1426.30   1602.10    176.30   93%2 o
   1   1  12    899.00    990.80    179.90   93%2 o
  -7   4  -8     17.09    141.70     74.70   93%2 <
  -7   5   0    616.80    778.60    118.70   93%2 o
   7  -4   5     94.28    323.10    105.60   93%2 o
   0  -2 -17     77.21    168.10     77.30   94%2 <
  -1  -1 -15    105.99    129.20     93.70   94%2 <
  -1  -1 -14    619.82    478.70    122.00   94%2 o
  -5   2 -14    286.23     -8.70     65.30   94%2 <
  -5   2 -13    115.48      8.10     69.50   94%2 <
  -2   0 -12    229.78    172.00    157.20   94%2 <
  -6   3 -11    115.40    186.20     77.60   94%2 <
   7  -6 -10     13.98    260.30    109.00   94%2 <
  -3   1  -9    101.78    361.10    159.10   94%2 <
  -7   4  -9    159.61    397.70     82.70   94%2 o
   6  -5  -8    646.04    643.10    130.40   94%2 o
   0  -1  -8   3733.90   3210.00    281.00   94%2 o
  -4   2  -7  13768.00  11816.70    332.50   94%2 o
   8  -6  -5     85.53     58.90     91.30   94%2 <
   5  -4  -5   1369.40   1025.60    221.80   94%2 o
  -5   3  -5   1488.00   1564.30    167.00   94%2 o
  -2   1  -3   1688.50   3820.50    316.10   94%2 o
  -6   4  -3   3231.70   2654.60    183.60   94%2 o
   7  -5  -2    533.35    472.20    110.30   94%2 o
   4  -3  -2   2488.60   2337.10    223.70   94%2 o
  -3   2  -1  13871.00  15385.20    413.70   94%2 o
  -7   5  -1    416.24    555.80    115.80   94%2 o
   6  -4   1    928.73    890.00    157.40   94%2 o
  -4   3   1   1163.30   2076.00    218.30   94%2 o
  -8   6   1     62.58     64.20     65.60   94%2 <
   8  -5   3     63.13    120.30     75.40   94%2 <
   5  -3   3    643.91    595.70    163.40   94%2 o
   2  -1   3   1450.50   3409.50    324.60   94%2 o
  -5   4   3   1095.40   1232.10    208.40   94%2 o
  -6   5   5    810.07   1029.00    147.30   94%2 o
   7  -4   6     82.38    132.80     91.50   94%2 <
   4  -2   6    950.41    732.40    203.80   94%2 o
  -7   6   7   2112.40   1477.70    153.40   94%2 o
   6  -3   8     26.67    147.20     98.60   94%2 <
   3  -1   8   3009.80   3132.20    197.90   94%2 o
   5  -2  10    352.12     48.90     99.60   94%2 <
   2   0  10   1310.40   1602.10    176.30   94%2 o
  -5   5  10    168.30    199.80    156.30   94%2 <
   1   1  12   1304.30    990.80    179.90   94%2 o
  -6   6  12   1117.00    616.40    134.30   94%2 o
   4  -1  13     66.02     41.40     97.80   94%2 <
   0   2  14   1763.60   1314.70    181.40   94%2 o
   3   0  15     87.69     -0.90     89.80   94%2 <
  -1   3  16   1141.30   1292.60    153.60   94%2 o
  -4   1 -15    110.26    145.20     64.80   94%2 <
  -5   2 -12    621.35    347.90    108.10   94%2 o
  -6   3 -10    928.91    574.20    107.80   94%2 o
  -7   4  -8      9.38    141.70     74.70   94%2 <
  -4   2  -6    976.68    988.10    161.20   94%2 o
  -5   3  -4   1806.50   2520.60    180.60   94%2 o
  -6   4  -2   2613.10   2589.80    188.10   94%2 o
   6  -4   0   5716.10   5430.70    247.80   94%2 o
  -7   5   0    828.58    778.60    118.70   94%2 o
   8  -5   2   1124.70    632.80    112.00   94%2 o
  -8   6   2    132.49    225.40     74.90   94%2 o
   7  -4   5    194.74    323.10    105.60   94%2 o
   4  -2   5   2428.40   2581.60    197.40   94%2 o
   6  -3   7    724.78    806.60    140.40   94%2 o
   4  -1  12    515.05    732.10    119.50   94%2 o
   2   1  16    131.25    155.40     73.70   94%2 <
   0   1   7  67039.00  69476.10    768.00   95%2 o
  -6   6  12   1462.40    616.40    134.30   95%2 o
   0  -2 -17     99.98    168.10     77.30   95%2 <
  -4   1 -15    122.70    145.20     64.80   95%2 <
  -1  -1 -14    675.72    478.70    122.00   95%2 o
  -5   2 -13    130.79      8.10     69.50   95%2 <
  -5   2 -12    700.07    347.90    108.10   95%2 o
  -6   3 -11    120.40    186.20     77.60   95%2 <
  -6   3 -10   1022.80    574.20    107.80   95%2 o
  -3   1  -9    148.20    361.10    159.10   95%2 <
   6  -5  -8    540.44    643.10    130.40   95%2 o
   0  -1  -8   3839.60   3210.00    281.00   95%2 o
  -7   4  -8     16.37    141.70     74.70   95%2 <
  -4   2  -7  13832.00  11816.70    332.50   95%2 o
  -7   4  -7    550.87    435.50    100.30   95%2 o
   8  -6  -6    130.58    424.50     98.40   95%2 o
  -4   2  -6   1010.80    988.10    161.20   95%2 o
   8  -6  -5     98.93     58.90     91.30   95%2 <
   5  -4  -5   1204.30   1025.60    221.80   95%2 o
  -8   5  -5     94.64     62.20     69.40   95%2 <
  -5   3  -4   1852.20   2520.60    180.60   95%2 o
   7  -5  -3     43.86    260.00    114.50   95%2 <
  -2   1  -3   1640.50   3820.50    316.10   95%2 o
   7  -5  -2    566.03    472.20    110.30   95%2 o
   4  -3  -2   2649.20   2337.10    223.70   95%2 o
  -6   4  -2   2580.80   2589.80    188.10   95%2 o
  -3   2  -1  14499.00  15385.20    413.70   95%2 o
   6  -4   0   5796.50   5430.70    247.80   95%2 o
   3  -2   0  32348.00  34454.80    552.90   95%2 o
  -7   5   0   1103.50    778.60    118.70   95%2 o
   8  -5   2   1298.30    632.80    112.00   95%2 o
  -8   6   2     88.03    225.40     74.90   95%2 o
   8  -5   3     60.66    120.30     75.40   95%2 <
   5  -3   3    460.09    595.70    163.40   95%2 o
  -5   4   3   1793.70   1232.10    208.40   95%2 o
   7  -4   5    333.88    323.10    105.60   95%2 o
   4  -2   5   2922.10   2581.60    197.40   95%2 o
  -6   5   5    652.91   1029.00    147.30   95%2 o
   6  -3   7    775.93    806.60    140.40   95%2 o
   3  -1   7   6097.30   7610.20    288.60   95%2 o
  -7   6   7   1871.60   1477.70    153.40   95%2 o
   6  -3   8     32.82    147.20     98.60   95%2 <
   5  -2  10    324.11     48.90     99.60   95%2 <
   2   0  10   1289.20   1602.10    176.30   95%2 o
   4  -1  12    520.97    732.10    119.50   95%2 o
   1   1  12   1636.50    990.80    179.90   95%2 o
   0   2  14   1780.50   1314.70    181.40   95%2 o
   2   1  16    117.43    155.40     73.70   95%2 <
  -4   1 -14     67.30    -26.80     70.80   95%2 <
  -6   3  -9    540.24    413.70    101.80   95%2 o
  -3   1  -8   2262.70   2047.60    183.20   95%2 o
   5  -3   2   1003.70   1212.00    157.30   95%2 o
   7  -4   4    603.30    492.80    112.80   95%2 o
   5  -2   9    747.27    802.20    140.40   95%2 o
   7  -5  -4     97.86     27.30    111.60   96%2 <
   4  -3  -3  21024.00  24534.90    460.80   96%2 o
  -8   5  -3      4.17    -86.90     67.60   96%2 <
   6  -4  -1   3294.70   2665.30    227.70   96%2 o
   8  -5   0   1475.50   1255.20    132.40   96%2 o
  -3   2   0  31668.00  35715.90    545.20   96%2 o
  -6   4   0   6616.10   5592.90    240.00   96%2 o
   2  -1   2   2496.40    864.00    391.00   96%2 <
  -4   3   2   1331.60   1580.80    242.30   96%2 o
  -7   5   2    481.40    449.80    105.10   96%2 o
   7  -4   3    774.66    641.50    128.80   96%2 o
   4  -2   4    369.91    783.00    169.70   96%2 o
  -5   4   4   5374.50   6941.60    291.00   96%2 o
  -8   6   4    285.80     70.50     70.40   96%2 <
  -6   5   6   1003.10   1736.30    180.90   96%2 o
   5  -2   8  12243.00  12153.40    326.90   96%2 o
  -7   6   8    937.08    767.40    140.80   96%2 o
   7  -3   9      9.16     75.00     81.10   96%2 <
  -1   2   9  47087.00  49200.30    676.00   96%2 o
   1   1  11  12326.00  10104.30    318.90   96%2 o
   6  -2  12     70.92    -12.30     81.90   96%2 <
   3   0  13   1059.30   1651.80    154.30   96%2 o
   0   2  13    436.30    671.90    158.60   96%2 o
   5  -1  14    112.81    218.10     78.70   96%2 <
   2   1  15    346.69    400.60     99.90   96%2 o
  -1   3  15   1276.80   1070.40    153.30   96%2 o
   1   2  17    197.90    449.00     93.40   96%2 o
   2  -3 -13  15612.00  10736.70    361.70   96%2 o
   6  -5  -9   2355.80   2276.00    186.20   96%2 o
   5  -4  -6  18813.00  18012.80    422.00   96%2 o
   0  -2 -16    286.32    155.00    104.60   96%2 <
  -4   1 -14     57.49    -26.80     70.80   96%2 <
  -1  -1 -13   1527.40   1423.10    163.30   96%2 o
  -4   1 -13     27.63    196.50     90.10   96%2 <
  -5   2 -11    526.09    425.90     96.10   96%2 o
  -2   0 -10   2665.80   1752.30    198.90   96%2 o
  -6   3  -9    560.63    413.70    101.80   96%2 o
  -3   1  -8   2510.90   2047.60    183.20   96%2 o
   8  -6  -7     43.37     85.10     85.90   96%2 <
  -7   4  -6     13.08     14.30     79.50   96%2 <
  -1   0  -5  87017.00  86993.10    845.80   96%2 o
  -4   2  -5   2229.80   4961.50    246.20   96%2 o
  -8   5  -4    377.82    130.20     81.40   96%2 <
  -5   3  -3   1341.50   1201.10    159.50   96%2 o
  -6   4  -1   2455.40   1988.90    174.20   96%2 o
   3  -2   0  33207.00  34454.80    552.90   96%2 o
   8  -5   1    505.11    234.90     93.90   96%2 <
  -7   5   1    553.64    153.00     97.80   96%2 <
   5  -3   2    846.68   1212.00    157.30   96%2 o
  -8   6   3     44.29    206.20     70.70   96%2 <
   7  -4   4    711.94    492.80    112.80   96%2 o
   6  -3   6   1357.80    860.20    152.00   96%2 o
   3  -1   7   5465.30   7610.20    288.60   96%2 o
   5  -2   9    675.87    802.20    140.40   96%2 o
   7  -3  10     29.10     57.50     77.00   96%2 <
   4  -1  11     76.32     60.40    104.40   96%2 <
  -3   0 -15    269.54    203.40     75.30   96%2 <
  -5   2 -10     92.07    233.60     92.60   96%2 <
  -6   3  -8     59.27    -83.60     89.20   96%2 <
  -3   1  -7   6076.10   6434.80    251.10   96%2 o
  -7   4  -5    145.55    442.20     99.20   96%2 o
  -4   2  -4    438.90   1123.80    169.10   97%2 o
  -7   4  -4    412.62    267.60     96.90   97%2 <
  -8   5  -3      4.16    -86.90     67.60   97%2 <
   6  -4  -2   1355.60   1443.50    171.30   97%2 o
  -2   1  -2   2583.60   2018.80    337.80   97%2 o
  -5   3  -2   1084.20    974.20    173.90   97%2 o
  -8   5  -2   1110.00    482.90     98.50   97%2 o
   8  -5  -1     91.00   -132.90     77.00   97%2 <
   3  -2  -1    606.52    798.00    269.10   97%2 <
   8  -5   0   1564.60   1255.20    132.40   97%2 o
  -3   2   0  31502.00  35715.90    545.20   97%2 o
  -6   4   0   6508.20   5592.90    240.00   97%2 o
   5  -3   1    406.96    640.20    180.00   97%2 o
   7  -4   2    523.24    497.80    114.40   97%2 o
   2  -1   2   2351.30    864.00    391.00   97%2 <
  -7   5   2    485.91    449.80    105.10   97%2 o
   7  -4   3    782.95    641.50    128.80   97%2 o
   4  -2   3  20559.00  22824.80    443.20   97%2 o
  -8   6   4    284.25     70.50     70.40   97%2 <
   6  -3   5   3819.10   3725.90    207.60   97%2 o
  -5   4   5    547.39    221.20    194.60   97%2 <
  -8   6   5    219.71    212.80     83.00   97%2 <
   8  -4   6     59.59    120.90     78.80   97%2 <
   3  -1   6   2651.10   1931.60    240.70   97%2 o
   5  -2   7    285.55    181.40    147.90   97%2 <
  -6   5   7    484.07    263.00    131.40   97%2 <
   7  -3   8    196.57    719.50    114.90   97%2 o
   5  -2   8  12144.00  12153.40    326.90   97%2 o
   2   0   8  16971.00  16671.60    393.90   97%2 o
   7  -3   9      9.25     75.00     81.10   97%2 <
  -4   4   9  11313.00  10398.60    401.90   97%2 o
  -7   6   9    590.73    324.50    113.40   97%2 <
   4  -1  10   2812.40   3085.80    191.30   97%2 o
   6  -2  11    475.28    384.10    105.80   97%2 o
  -5   5  11   6073.60   4278.20    223.70   97%2 o
   6  -2  12     67.68    -12.30     81.90   97%2 <
   5  -1  13   1240.50   1214.00    122.10   97%2 o
   0   2  13    393.02    671.90    158.60   97%2 o
   5  -1  14    112.72    218.10     78.70   97%2 <
   2   1  14    900.42   1199.70    149.20   97%2 o
  -1   3  15   1226.50   1070.40    153.30   97%2 o
   1   2  17    204.14    449.00     93.40   97%2 o
   0  -2 -15    111.38    157.70    129.70   97%2 <
  -1  -1 -12    149.67    576.80    166.50   97%2 o
  -4   1 -12     78.97    226.40    107.70   97%2 <
   1  -2 -10  16935.00  17914.10    438.40   97%2 o
   6  -5  -9   2556.30   2276.00    186.20   97%2 o
  -5   2  -9   1305.40   1014.20    141.50   97%2 o
   0  -1  -7  70303.00  74391.20    774.60   97%2 o
   5  -4  -6  18610.00  18012.80    422.00   97%2 o
   7  -5  -5     89.71    219.40     84.00   97%2 <
  -3   0 -15    269.00    203.40     75.30   97%2 <
  -5   2 -10     90.33    233.60     92.60   97%2 <
  -3   1  -7   6038.70   6434.80    251.10   97%2 o
  -7   4  -5    168.88    442.20     99.20   97%2 o
  -6   3  -7    836.96    973.30    106.40   97%2 o
   4  -3  -4    380.07    928.00    221.10   98%2 o
  -4   2  -4    466.53   1123.80    169.10   98%2 o
  -7   4  -4    357.60    267.60     96.90   98%2 <
   6  -4  -2    902.27   1443.50    171.30   98%2 o
  -2   1  -2   1927.20   2018.80    337.80   98%2 o
  -8   5  -2   1060.00    482.90     98.50   98%2 o
   8  -5  -1     18.84   -132.90     77.00   98%2 <
   3  -2  -1    857.09    798.00    269.10   98%2 <
   7  -4   2    345.71    497.80    114.40   98%2 o
   4  -2   3  19538.00  22824.80    443.20   98%2 o
  -4   3   3  19233.00  22552.60    449.20   98%2 o
  -7   5   3    335.98    368.10    108.80   98%2 o
  -5   4   5    252.92    221.20    194.60   98%2 <
  -8   6   5    143.56    212.80     83.00   98%2 <
   8  -4   6     36.26    120.90     78.80   98%2 <
   5  -2   7    411.87    181.40    147.90   98%2 <
  -6   5   7    408.80    263.00    131.40   98%2 <
   7  -3   8    775.43    719.50    114.90   98%2 o
   2   0   8  17081.00  16671.60    393.90   98%2 o
  -7   6   9    698.80    324.50    113.40   98%2 <
   1   1  10   4529.00   4444.30    264.00   98%2 o
   6  -2  11    322.67    384.10    105.80   98%2 o
   5  -1  13    868.13   1214.00    122.10   98%2 o
   2   1  14   1103.30   1199.70    149.20   98%2 o
   1   2  16     48.38     33.00     94.60   98%2 <
  -2  -1 -16    180.09    100.60     87.00   98%2 <
   0  -2 -15    121.61    157.70    129.70   98%2 <
  -1  -1 -12    214.35    576.80    166.50   98%2 o
  -4   1 -11    181.21     73.90    103.80   98%2 <
   6  -5 -10    108.94    382.30    133.30   98%2 <
  -7   3 -10     82.50     76.30     64.70   98%2 <
  -5   2  -9    847.95   1014.20    141.50   98%2 o
  -5   2  -8  13002.00   9577.60    326.30   98%2 o
   5  -4  -7   3490.60   2554.10    244.20   98%2 o
   0  -1  -7  72185.00  74391.20    774.60   98%2 o
   7  -5  -6    785.85    805.00    123.10   98%2 o
  -3   1  -6   1563.40   1638.90    183.10   98%2 o
  -6   3  -6   1153.60   1123.70    117.20   98%2 o
   7  -5  -5     64.69    219.40     84.00   98%2 <
   6  -4  -3   1829.20   1636.30    192.40   98%2 o
  -7   4  -3    660.66    818.80    115.70   98%2 o
   8  -5  -2     34.02    144.20     77.20   98%2 <
  -5   3  -1    568.05    680.60    147.10   98%2 o
  -8   5  -1    420.57    436.90     90.80   98%2 o
   5  -3   0   1315.70   1266.80    167.30   98%2 o
   7  -4   1     24.84    118.60    101.50   98%2 <
  -6   4   1   4391.60   3752.40    203.00   98%2 o
   6  -3   4   3167.00   3137.80    207.70   98%2 o
   8  -4   5     51.21     48.00     84.20   98%2 <
   4  -1   9   4727.20   4804.10    240.00   98%2 o
   6  -2  10    137.44    137.00     93.30   98%2 <
   7  -3   7     10.62     92.30     60.90   98%2 <
   1  -3 -17   1292.70   1008.00    132.30   99%2 o
  -2  -1 -16    154.63    100.60     87.00   99%2 <
   0  -2 -14   5783.40   3652.50    222.10   99%2 o
  -3   0 -13   1332.10   1441.40    152.70   99%2 o
  -1  -1 -11   8084.10   8606.00    321.80   99%2 o
  -4   1 -11     34.37     73.90    103.80   99%2 <
   6  -5 -10    105.12    382.30    133.30   99%2 <
  -7   3 -10     90.72     76.30     64.70   99%2 <
  -5   2  -8  12035.00   9577.60    326.30   99%2 o
   5  -4  -7   3472.70   2554.10    244.20   99%2 o
   7  -5  -6    474.48    805.00    123.10   99%2 o
  -3   1  -6   1394.90   1638.90    183.10   99%2 o
   4  -3  -4    360.37    928.00    221.10   99%2 o
   6  -4  -3   1693.20   1636.30    192.40   99%2 o
  -7   4  -3    565.67    818.80    115.70   99%2 o
   8  -5  -2     22.84    144.20     77.20   99%2 <
  -5   3  -1    416.36    680.60    147.10   99%2 o
  -8   5  -1    380.07    436.90     90.80   99%2 o
   5  -3   0   1272.30   1266.80    167.30   99%2 o
   7  -4   1     32.70    118.60    101.50   99%2 <
  -3   2   1    490.44   1086.50    267.30   99%2 o
  -6   4   1   3708.10   3752.40    203.00   99%2 o
  -4   3   3  19149.00  22552.60    449.20   99%2 o
   6  -3   4   2944.50   3137.80    207.70   99%2 o
   8  -4   5     49.88     48.00     84.20   99%2 <
   3  -1   5  50195.00  46948.80    632.00   99%2 o
  -8   6   6    318.38    248.70     83.90   99%2 <
   4  -1   9   4441.90   4804.10    240.00   99%2 o
   6  -2  10     92.26    137.00     93.30   99%2 <
   1   1  10   4336.50   4444.30    264.00   99%2 o
  -7   6  10     46.65     -0.50     82.70   99%2 <
   3   0  11   6468.90   8008.40    306.40   99%2 o
   0   2  12   9913.80   8562.30    310.90   99%2 o
   1   2  16     68.76     33.00     94.60   99%2 <
  -6   2 -12     44.16    -23.40     73.10   99%2 <
  -4   1 -10   2756.50   2825.50    192.50   99%2 o
  -7   3  -9     12.42     52.50     72.40   99%2 <
  -2   0  -8  16367.00  21268.10    422.00   99%2 o
  -5   2  -7    258.68    -30.10    146.40   99%2 <
  -6   3  -5   3938.20   3510.40    204.70   99%2 o
  -4   2  -3  18850.00  20056.00    412.10   99%2 o
  -8   5   0   1064.30    768.10    118.30   99%2 o
   6  -3   3   5818.30   6312.40    258.00   99%2 o
   8  -4   4    688.79    647.90    117.60   99%2 o
  -7   5   4    174.09    264.50     83.70   99%2 o
   5  -2   6    482.03    608.60    153.30   99%2 o
   7  -3   7     24.92     92.30     60.90   99%2 <
   6  -2   9   2969.30   1836.40    166.10   99%2 o
   5  -1  12     32.82   -199.30     87.00   99%2 <
   2   1  13    162.90     20.30    138.70   99%2 <
   4   0  14     29.53    250.20     76.60   99%2 o
   1  -3 -17   1405.30   1008.00    132.30  100%2 o
  -2  -1 -15    190.28    181.00    100.50  100%2 <
   0  -2 -14   5781.50   3652.50    222.10  100%2 o
  -5   1 -14    200.07    265.30     72.80  100%2 o
  -6   2 -12     46.26    -23.40     73.10  100%2 <
  -1  -1 -11   7414.10   8606.00    321.80  100%2 o
  -4   1 -10   2671.50   2825.50    192.50  100%2 o
  -7   3  -9      7.25     52.50     72.40  100%2 <
  -2   0  -8  16105.00  21268.10    422.00  100%2 o
  -5   2  -7    225.38    -30.10    146.40  100%2 <
  -6   3  -5   3821.70   3510.40    204.70  100%2 o
   8  -5  -3     97.44    105.50     99.60  100%2 <
  -4   2  -3  17705.00  20056.00    412.10  100%2 o
  -7   4  -2    317.64    714.60    114.00  100%2 o
   7  -4   0   2098.50   2084.50    186.40  100%2 o
  -8   5   0    999.82    768.10    118.30  100%2 o
   2  -1   1   3152.20   4048.50    426.80  100%2 o
  -3   2   1    482.99   1086.50    267.30  100%2 o
   4  -2   2   1030.40   1382.80    225.50  100%2 o
  -6   4   2   1307.50   1741.10    184.90  100%2 o
   6  -3   3   5651.80   6312.40    258.00  100%2 o
   8  -4   4    657.87    647.90    117.60  100%2 o
  -7   5   4    262.71    264.50     83.70  100%2 o
   3  -1   5  47391.00  46948.80    632.00  100%2 o
   5  -2   6    489.29    608.60    153.30  100%2 o
  -5   4   6  18735.00  17612.80    422.20  100%2 o
  -8   6   6    238.05    248.70     83.90  100%2 <
   4  -1   8   5132.30   4099.60    238.00  100%2 o
  -6   5   8    247.68    466.50    132.50  100%2 o
   6  -2   9   2664.10   1836.40    166.10  100%2 o
  -7   6  10     47.29     -0.50     82.70  100%2 <
   0   2  12   9447.00   8562.30    310.90  100%2 o
   2   1  13    146.55     20.30    138.70  100%2 <
   4   0  14     34.81    250.20     76.60  100%2 o
  -1   3  14   2504.40   2122.90    193.90  100%2 o
   1   2  15    307.24     46.40    103.10  100%2 <
   3   1  16    823.07    230.80     96.80  100%2 <
   0   3  17    789.84    500.20    122.10  100%2 o
  -5   1 -13    121.57    118.50     73.50  100%2 <
  -6   2 -11    496.75    291.00     98.50  100%2 <
  -4   1  -9   4730.00   4546.70    226.40  100%2 o
  -7   3  -8    725.97    484.30     91.90  100%2 o
   7  -5  -7   1496.80   1519.50    154.60  100%2 o
  -8   4  -6     21.35    227.10     71.60  100%2 o
  -3   1  -5  42417.00  43388.50    589.40  100%2 o
   6  -4  -4    433.96    536.20    162.60  100%2 o
  -6   3  -4   3804.80   3107.50    202.90  100%2 o
   5  -3  -1    850.54   1112.70    165.40  100%2 o
  -5   3   0   2222.50   2197.80    189.70  100%2 o
  -8   5   1    145.53    251.20     86.50  100%2 <
   8  -4   3     21.32     55.80     82.00  100%2 <
   5  -2   5   3368.00   3253.20    206.40  100%2 o
   7  -3   6    936.76    528.50    121.40  100%2 o
  -8   6   7     64.40     37.90     70.40  100%2 <
   6  -2   8     53.22    100.40    104.40  100%2 <
   5  -1  11    391.31    672.10    109.90  100%2 o
  -2  -1 -15    229.36    181.00    100.50  101%2 <
  -5   1 -14    246.58    265.30     72.80  101%2 o
   0  -2 -13   1349.80   1010.30    174.90  101%2 o
  -5   1 -13    127.46    118.50     73.50  101%2 <
   6  -5 -11    713.16    424.60    139.70  101%2 o
  -6   2 -11    480.97    291.00     98.50  101%2 <
  -1  -1 -10   4157.20   3896.20    244.00  101%2 o
  -4   1  -9   4516.70   4546.70    226.40  101%2 o
  -7   3  -8   1137.80    484.30     91.90  101%2 o
   7  -5  -7   1445.70   1519.50    154.60  101%2 o
  -8   4  -6     17.85    227.10     71.60  101%2 o
  -3   1  -5  48404.00  43388.50    589.40  101%2 o
   6  -4  -4    402.80    536.20    162.60  101%2 o
  -6   3  -4   3506.50   3107.50    202.90  101%2 o
   8  -5  -3     49.09    105.50     99.60  101%2 <
   3  -2  -2  85733.00  81933.80    801.30  101%2 o
   5  -3  -1    951.13   1112.70    165.40  101%2 o
  -2   1  -1   3623.50   4746.00    387.50  101%2 o
  -5   3   0   2319.60   2197.80    189.70  101%2 o
   2  -1   1   3335.90   4048.50    426.80  101%2 o
  -8   5   1     72.73    251.20     86.50  101%2 <
   4  -2   2    956.35   1382.80    225.50  101%2 o
   8  -4   3     24.76     55.80     82.00  101%2 <
  -4   3   4    155.92    177.20    207.30  101%2 <
   5  -2   5   2727.50   3253.20    206.40  101%2 o
  -7   5   5     48.17     48.40     98.20  101%2 <
   7  -3   6    980.20    528.50    121.40  101%2 o
   0   1   6  17915.00  27549.40    555.30  101%2 o
  -5   4   6  20647.00  17612.80    422.20  101%2 o
  -8   6   7     74.48     37.90     70.40  101%2 <
   6  -2   8     80.44    100.40    104.40  101%2 <
   4  -1   8   5734.10   4099.60    238.00  101%2 o
   5  -1  11    328.35    672.10    109.90  101%2 o
  -1   3  14   2566.90   2122.90    193.90  101%2 o
   1   2  15    274.55     46.40    103.10  101%2 <
   3   1  16    528.92    230.80     96.80  101%2 <
   0   3  17    179.38    500.20    122.10  101%2 o
  -1  -2 -17    414.27    593.00    109.50  101%2 o
  -2  -1 -14   2457.20   2022.50    157.90  101%2 o
  -3   0 -11   8620.40   8085.40    290.80  101%2 o
  -6   2 -10     43.07   -122.50     86.80  101%2 <
  -7   3  -7     10.02     82.40     80.00  101%2 <
  -5   2  -6    378.27    474.00    149.70  101%2 o
  -8   4  -5     51.96    -75.20     77.00  101%2 <
   8  -5  -4   1280.60   1427.90    134.40  101%2 o
  -6   3  -3   5870.10   5194.30    235.40  101%2 o
  -4   2  -2   1020.90    752.30    172.30  101%2 o
   9  -5  -1    454.69    144.80     85.30  101%2 <
   7  -4  -1   3016.50   2370.60    166.50  101%2 o
  -7   4  -1     29.34    190.10     96.10  101%2 <
   8  -4   2    182.15    196.00     82.30  101%2 <
   6  -3   2   2150.30   3130.70    215.30  101%2 o
  -6   4   3   2263.70   1842.30    192.60  101%2 o
   3  -1   4  17817.00  24306.90    444.70  101%2 o
   7  -3   5    449.99    174.90    107.00  101%2 <
   7  -2  11    174.25     99.20     60.60  101%2 <
   6  -1  13     87.18    -36.30     75.80  101%2 <
   3   1  15     44.17    196.70     98.40  101%2 <
  -1  -2 -17    406.57    593.00    109.50  102%2 o
   1  -3 -16    133.00    544.70    138.90  102%2 o
  -2  -1 -14   2325.50   2022.50    157.90  102%2 o
   0  -2 -13   1312.10   1010.30    174.90  102%2 o
  -5   1 -12     48.56     65.80     98.20  102%2 <
  -3   0 -11   8279.90   8085.40    290.80  102%2 o
  -1  -1 -10   4004.30   3896.20    244.00  102%2 o
   1  -2  -9  50430.00  39073.90    613.40  102%2 o
   7  -5  -8    443.44    428.00    130.50  102%2 o
   5  -4  -8   1527.70    965.40    205.90  102%2 o
  -4   1  -8   5011.30   3865.60    233.30  102%2 o
  -7   3  -7     10.23     82.40     80.00  102%2 <
   4  -3  -5    781.43   1581.20    250.50  102%2 o
  -6   3  -3   5556.40   5194.30    235.40  102%2 o
   9  -5  -1    433.34    144.80     85.30  102%2 <
   8  -4   2    165.06    196.00     82.30  102%2 <
  -8   5   2    129.82     95.90     96.20  102%2 <
  -6   4   3   2153.60   1842.30    192.60  102%2 o
   3  -1   4  16829.00  24306.90    444.70  102%2 o
   4  -1   7   2087.20   1662.90    170.50  102%2 o
   1   1   9    562.36   1214.60    217.30  102%2 o
  -6   5   9     66.92    281.00    120.60  102%2 <
   5  -1  10   1757.70   3543.10    205.10  102%2 o
   2   1  12  29656.00  27354.60    488.90  102%2 o
  -5   5  12    280.28    144.70    160.40  102%2 <
   6  -1  13     84.76    -36.30     75.80  102%2 <
   3   1  15     41.69    196.70     98.40  102%2 <
  -2   4  16    362.62    641.50    132.10  102%2 o
  -1  -2 -16     46.00    152.50     92.80  102%2 <
  -4   0 -14    113.03     75.50     76.30  102%2 <
  -2  -1 -13    129.03    142.80    133.50  102%2 <
  -6   2  -9   2883.10   2433.20    167.30  102%2 o
  -7   3  -6    791.28    731.10    116.70  102%2 o
   8  -5  -5    292.32     88.40    102.40  102%2 <
   6  -4  -5   1338.10   1942.20    180.70  102%2 o
  -5   2  -5   2758.90   2744.60    188.20  102%2 o
  -3   1  -4  19003.00  22029.50    465.40  102%2 o
  -8   4  -4    789.78    783.70    106.60  102%2 o
   7  -4  -2    591.85    568.90    137.30  102%2 o
   5  -3  -2   2691.20   3102.00    221.80  102%2 o
  -7   4   0   3255.90   2150.20    157.80  102%2 o
   8  -4   1   1198.10    986.90    118.60  102%2 o
   6  -3   1   5318.60   4905.10    253.80  102%2 o
   4  -2   1   5139.70   6968.60    277.60  102%2 o
  -5   3   1   1036.10    943.20    167.40  102%2 o
  -3   2   2  76021.00  76274.90    790.90  102%2 o
   7  -3   4    297.54    184.40    103.90  102%2 <
   5  -2   4    331.56    152.50    139.50  102%2 <
   2   0   6   4386.70   4617.50    281.10  102%2 o
  -7   5   6    207.02    458.60    102.30  102%2 o
   8  -3   7    252.56    205.40     84.70  102%2 <
   6  -2   7    570.08   1018.40    139.70  102%2 o
   3   0   9   6628.10   8099.40    286.40  102%2 o
   7  -2  10     29.48      8.30     75.40  102%2 <
   6  -1  12     38.80    218.80     86.80  102%2 <
   4   0  12    612.84    763.20    127.20  102%2 o
   1   2  14   2476.40   1771.20    170.90  102%2 o
  -5   1 -11    791.38    500.90    104.10  102%2 o
  -8   4  -3     22.21     -0.90     77.70  102%2 <
  -6   3  -2   2533.40   2900.60    204.90  102%2 o
   7  -2   9     49.49     34.00     83.80  102%2 <
   5  -1   9    493.42    228.90    129.30  102%2 <
  -1  -2 -16     32.44    152.50     92.80  103%2 <
  -4   0 -14    280.01     75.50     76.30  103%2 <
  -2  -1 -13     92.22    142.80    133.50  103%2 <
  -5   1 -12    899.36     65.80     98.20  103%2 <
   6  -5 -11    867.02    424.60    139.70  103%2 o
  -6   2  -9   2295.30   2433.20    167.30  103%2 o
   7  -5  -8    606.56    428.00    130.50  103%2 o
   5  -4  -8    880.83    965.40    205.90  103%2 o
  -4   1  -8   4814.00   3865.60    233.30  103%2 o
   0  -1  -6  18821.00  22822.80    542.00  103%2 o
  -7   3  -6    923.28    731.10    116.70  103%2 o
   8  -5  -5    350.89     88.40    102.40  103%2 <
   6  -4  -5   2087.60   1942.20    180.70  103%2 o
   4  -3  -5   1022.40   1581.20    250.50  103%2 o
  -5   2  -5   4373.80   2744.60    188.20  103%2 o
  -3   1  -4  21215.00  22029.50    465.40  103%2 o
  -8   4  -4    838.96    783.70    106.60  103%2 o
  -6   3  -3   6555.70   5194.30    235.40  103%2 o
   7  -4  -2    501.73    568.90    137.30  103%2 o
   5  -3  -2   2138.70   3102.00    221.80  103%2 o
   3  -2  -2  71409.00  81933.80    801.30  103%2 o
   9  -5  -1    985.98    144.80     85.30  103%2 <
  -7   4   0   2365.40   2150.20    157.80  103%2 o
   8  -4   1   1478.50    986.90    118.60  103%2 o
   6  -3   1   6987.00   4905.10    253.80  103%2 o
   4  -2   1   5614.30   6968.60    277.60  103%2 o
  -5   3   1    743.37    943.20    167.40  103%2 o
   8  -4   2    462.36    196.00     82.30  103%2 <
  -3   2   2  82103.00  76274.90    790.90  103%2 o
  -8   5   2    302.72     95.90     96.20  103%2 <
  -6   4   3   2038.20   1842.30    192.60  103%2 o
   7  -3   4    299.68    184.40    103.90  103%2 <
   5  -2   4    828.24    152.50    139.50  103%2 <
  -4   3   4    856.89    177.20    207.30  103%2 <
   2   0   6   3903.10   4617.50    281.10  103%2 o
  -7   5   6     58.74    458.60    102.30  103%2 o
   8  -3   7    188.09    205.40     84.70  103%2 <
   6  -2   7    907.67   1018.40    139.70  103%2 o
   4  -1   7   1149.40   1662.90    170.50  103%2 o
   3   0   9   6566.20   8099.40    286.40  103%2 o
  -6   5   9    152.25    281.00    120.60  103%2 <
   7  -2  10     47.91      8.30     75.40  103%2 <
   5  -1  10   4970.50   3543.10    205.10  103%2 o
   0   2  11   2089.00   1583.90    226.40  103%2 o
   6  -1  12    189.90    218.80     86.80  103%2 <
   4   0  12   1026.10    763.20    127.20  103%2 o
   2   1  12  27447.00  27354.60    488.90  103%2 o
  -5   5  12    415.79    144.70    160.40  103%2 <
   1   2  14   1845.20   1771.20    170.90  103%2 o
   0   3  16    336.77    287.80    101.00  103%2 <
  -5   1 -11    325.33    500.90    104.10  103%2 o
  -6   2  -8     80.56    251.50     94.20  103%2 <
  -8   4  -3    298.23     -0.90     77.70  103%2 <
  -6   3  -2   2187.60   2900.60    204.90  103%2 o
   7  -2   9    120.68     34.00     83.80  103%2 <
   5  -1   9    169.79    228.90    129.30  103%2 <
   3   1  14    988.79    759.20    111.90  103%2 o
  -3  -1 -16    628.00    242.70     93.10  104%2 <
   1  -3 -15   3362.60   2570.20    204.00  104%2 o
   0  -2 -12   7811.90   6877.70    309.30  104%2 o
  -1  -1  -9    437.09   1859.00    224.30  104%2 o
  -6   2  -8     61.85    251.50     94.20  104%2 <
  -4   1  -7   1785.20   1268.10    161.00  104%2 o
  -7   3  -5    178.53    239.60     90.30  104%2 <
  -1   0  -3   9111.00  13458.80    532.20  104%2 o
  -8   4  -3    260.16     -0.90     77.70  104%2 <
  -6   3  -2   1511.30   2900.60    204.90  104%2 o
  -4   2  -1   7163.50   7136.50    304.70  104%2 o
  -3   2   2  73876.00  76274.90    790.90  104%2 o
   1   0   3  10706.00  14503.50    536.70  104%2 o
  -8   5   3      9.80     59.00     68.20  104%2 <
  -6   4   4    132.59    484.80    146.70  104%2 o
   8  -3   6      7.48     49.30     74.40  104%2 <
   6  -2   6    411.96    501.90    133.10  104%2 o
   4  -1   6    248.28    868.10    153.20  104%2 o
   2   0   6   3665.20   4617.50    281.10  104%2 o
  -7   5   6     67.36    458.60    102.30  104%2 o
  -5   4   7   3108.00   3197.80    266.60  104%2 o
  -1   2   8  63834.00  60985.20    749.80  104%2 o
   7  -2   9    112.67     34.00     83.80  104%2 <
   5  -1   9    112.60    228.90    129.30  104%2 <
   2   1  11   3722.50   4199.30    247.30  104%2 o
  -1   3  13   1624.20   2405.20    233.70  104%2 o
   3   1  14    980.60    759.20    111.90  104%2 o
   2   2  16    168.19    397.00     91.30  104%2 o
   0   3  16    255.46    287.80    101.00  104%2 <
  -1  -2 -15   5673.70   2158.00    167.60  104%2 o
  -6   1 -13    192.86    160.80     68.00  104%2 <
  -2  -1 -12  23477.00  21574.70    483.90  104%2 o
  -5   1 -10   1405.40   1515.60    153.00  104%2 o
  -6   2  -7    651.88    728.90    128.90  104%2 o
   8  -5  -6    348.60     -5.50     73.40  104%2 <
  -2   0  -6   3373.70   3951.10    268.50  104%2 o
  -5   2  -4    194.64    401.50    138.50  104%2 <
   7  -4  -3   1086.80   1586.80    147.60  104%2 o
  -8   4  -2    174.78     46.20     74.90  104%2 <
   8  -4   0    148.83    375.70    100.00  104%2 o
   6  -3   0   6877.10   6421.40    265.40  104%2 o
  -7   4   1   2644.00   1749.30    154.90  104%2 o
   7  -3   3    624.49    310.40    116.10  104%2 <
   5  -2   3   4384.50   5506.70    243.40  104%2 o
   3  -1   3  27792.00  28499.80    489.60  104%2 o
   8  -3   5     47.51    116.90     77.90  104%2 <
   7  -2   8     13.75    -37.40     82.50  104%2 <
   5  -1   8    105.26     95.90    159.80  104%2 <
   6  -1  11     92.26    327.00     88.60  104%2 o
  -3  -1 -16    596.86    242.70     93.10  105%2 <
   1  -3 -15   3497.40   2570.20    204.00  105%2 o
  -1  -2 -15   1866.90   2158.00    167.60  105%2 o
  -6   1 -13     71.38    160.80     68.00  105%2 <
   6  -5 -12    143.87    363.10    143.50  105%2 <
   0  -2 -12   8683.70   6877.70    309.30  105%2 o
  -2  -1 -12  30851.00  21574.70    483.90  105%2 o
  -5   1 -10   1387.50   1515.60    153.00  105%2 o
   7  -5  -9    177.98    256.50    116.40  105%2 <
  -1  -1  -9   1039.50   1859.00    224.30  105%2 o
  -3   0  -9   5224.60   5527.40    259.50  105%2 o
  -6   2  -7    589.55    728.90    128.90  105%2 o
   8  -5  -6     75.88     -5.50     73.40  105%2 <
   6  -4  -6    343.96   1584.90    192.90  105%2 o
  -2   0  -6   4124.20   3951.10    268.50  105%2 o
  -5   2  -4    870.67    401.50    138.50  105%2 <
   7  -4  -3   1921.20   1586.80    147.60  105%2 o
   5  -3  -3   2575.50   6294.10    275.80  105%2 o
  -1   0  -3   8277.00  13458.80    532.20  105%2 o
  -8   4  -2    120.41     46.20     74.90  105%2 <
  -6   3  -1   5832.20   5846.60    262.10  105%2 o
   8  -4   0    307.28    375.70    100.00  105%2 o
   6  -3   0   6255.90   6421.40    265.40  105%2 o
   4  -2   0   4498.40   4482.50    280.60  105%2 o
  -7   4   1   1819.90   1749.30    154.90  105%2 o
  -5   3   2   2680.40   2812.80    223.70  105%2 o
   7  -3   3    605.57    310.40    116.10  105%2 <
   5  -2   3   2835.90   5506.70    243.40  105%2 o
   3  -1   3  28101.00  28499.80    489.60  105%2 o
  -6   4   4    143.66    484.80    146.70  105%2 o
  -8   5   4   1134.40   1022.40    119.00  105%2 o
   8  -3   5     83.23    116.90     77.90  105%2 <
  -4   3   5   3161.70   2057.60    249.70  105%2 o
  -7   5   7   1562.80   1343.20    149.60  105%2 o
   7  -2   8    100.79    -37.40     82.50  105%2 <
   5  -1   8    143.18     95.90    159.80  105%2 <
   1   1   8   4986.20   7783.30    319.50  105%2 o
   6  -1  11    315.22    327.00     88.60  105%2 o
   2   1  11   5472.40   4199.30    247.30  105%2 o
   1   2  13    365.67    194.70    158.30  105%2 <
  -1   3  13   2986.20   2405.20    233.70  105%2 o
   2   2  16    225.78    397.00     91.30  105%2 o
  -3  -1 -15    351.60    185.70     89.80  105%2 <
  -4   0 -12    583.73    644.00    120.40  105%2 o
  -7   2 -10     31.59    -39.30     66.40  105%2 <
  -5   1  -9    318.57    216.90    122.90  105%2 <
  -4   1  -6   1514.00   1934.60    168.60  105%2 o
  -7   3  -4    174.56    113.10     98.70  105%2 <
  -3   1  -3  28927.00  30239.50    504.70  105%2 o
   8  -4  -1    219.83     79.10     85.20  105%2 <
  -9   5   1    193.24    160.50     68.50  105%2 <
   9  -4   2     30.55     48.90     69.80  105%2 <
   7  -3   2    650.34    454.70    127.60  105%2 o
   6  -2   5    489.74    445.70    142.90  105%2 o
   6  -1  10    509.93    734.90    107.30  105%2 o
   5   0  13     38.15     76.20     77.30  105%2 <
   3   1  13    514.62    263.00    104.50  105%2 <
  -3  -1 -15     41.67    185.70     89.80  106%2 <
   6  -5 -12   2903.70    363.10    143.50  106%2 <
  -4   0 -12    607.94    644.00    120.40  106%2 o
  -6   1 -12     64.61    150.30     68.60  106%2 <
  -7   2 -10     72.16    -39.30     66.40  106%2 <
   7  -5  -9     90.18    256.50    116.40  106%2 <
   5  -4  -9   2453.10   1030.90    202.60  106%2 o
  -3   0  -9   6139.20   5527.40    259.50  106%2 o
  -5   1  -9    260.66    216.90    122.90  106%2 <
   8  -5  -7    176.93    853.00    106.30  106%2 o
   6  -4  -6   3900.80   1584.90    192.90  106%2 o
   4  -3  -6  32916.00  34032.40    543.10  106%2 o
  -4   1  -6    725.22   1934.60    168.60  106%2 o
  -7   3  -4    186.89    113.10     98.70  106%2 <
   5  -3  -3   5912.70   6294.10    275.80  106%2 o
   3  -2  -3  58247.00  60423.20    723.40  106%2 o
  -3   1  -3  27412.00  30239.50    504.70  106%2 o
   8  -4  -1    191.43     79.10     85.20  106%2 <
  -6   3  -1   6126.20   5846.60    262.10  106%2 o
  -8   4  -1    770.53    886.40    111.60  106%2 o
   4  -2   0   3972.10   4482.50    280.60  106%2 o
  -2   1   0 119310.00  99666.60    929.00  106%2 o
  -9   5   1     92.90    160.50     68.50  106%2 <
   9  -4   2     23.98     48.90     69.80  106%2 <
   7  -3   2    646.23    454.70    127.60  106%2 o
  -5   3   2   2181.30   2812.80    223.70  106%2 o
  -7   4   2    328.39    573.10    133.10  106%2 o
  -8   5   4   1189.90   1022.40    119.00  106%2 o
   8  -3   5     28.89    116.90     77.90  106%2 <
   6  -2   5    665.88    445.70    142.90  106%2 o
   4  -1   5     41.16    436.80    178.70  106%2 <
  -4   3   5    565.77   2057.60    249.70  106%2 o
  -6   4   5   1808.60    966.40    160.10  106%2 o
  -7   5   7   1314.50   1343.20    149.60  106%2 o
   5  -1   8    111.08     95.90    159.80  106%2 <
   1   1   8   2805.80   7783.30    319.50  106%2 o
   6  -1  10   1451.50    734.90    107.30  106%2 o
   4   0  10  11374.00  10224.10    325.40  106%2 o
  -6   5  10    329.41    401.70    121.60  106%2 o
   5   0  13      9.64     76.20     77.30  106%2 <
   3   1  13    587.43    263.00    104.50  106%2 <
   1   2  13    159.95    194.70    158.30  106%2 <
   4   1  15    184.34    216.70     84.10  106%2 <
   2   2  15   1685.10   1178.20    135.00  106%2 o
   0   3  15    214.95    550.50    123.80  106%2 o
  -2   4  15   1171.70    886.90    155.10  106%2 o
  -7   2  -9     40.26     30.40     74.60  106%2 <
  -6   2  -6    320.86    670.70    124.80  106%2 o
  -8   3  -6      9.55     32.10     71.00  106%2 <
   7  -4  -4    292.22    177.60    104.20  106%2 <
  -5   2  -3   6821.00   7556.60    262.00  106%2 o
  -7   3  -3    520.10    616.00    105.90  106%2 o
   6  -3  -1    771.93    979.70    161.20  106%2 o
  -4   2   0   3898.60   4546.70    238.50  106%2 o
   9  -4   1    454.99    125.40     79.00  106%2 <
   5  -2   2   1821.70   1173.00    166.80  106%2 o
   8  -3   4    184.46    529.30     99.80  106%2 o
   7  -2   7    517.70    478.30    108.20  106%2 o
   5  -1   7    459.27    743.20    155.10  106%2 o
   2   1  10  16137.00  17307.50    403.50  106%2 o
   0  -3 -17     22.26    240.70     92.00  107%2 <
  -1  -2 -14   1215.70   1495.20    152.90  107%2 o
  -3  -1 -14   1510.30    807.00    126.10  107%2 o
  -6   1 -12     58.40    150.30     68.60  107%2 <
   0  -2 -11    494.07   1526.70    204.90  107%2 o
  -2  -1 -11   2959.00   2535.70    220.40  107%2 o
   7  -5 -10    110.36    202.50    100.70  107%2 <
   5  -4  -9   1892.10   1030.90    202.60  107%2 o
  -7   2  -9     42.42     30.40     74.60  107%2 <
  -1  -1  -8   4802.40   4549.40    265.30  107%2 o
   8  -5  -7    213.28    853.00    106.30  107%2 o
   4  -3  -6  34393.00  34032.40    543.10  107%2 o
  -6   2  -6    376.74    670.70    124.80  107%2 o
  -8   3  -6     15.08     32.10     71.00  107%2 <
   7  -4  -4    276.17    177.60    104.20  107%2 <
   3  -2  -3  54353.00  60423.20    723.40  107%2 o
  -5   2  -3   6613.90   7556.60    262.00  107%2 o
  -7   3  -3    536.06    616.00    105.90  107%2 o
   6  -3  -1    885.64    979.70    161.20  107%2 o
  -8   4  -1    744.33    886.40    111.60  107%2 o
  -2   1   0 114800.00  99666.60    929.00  107%2 o
  -4   2   0   3541.50   4546.70    238.50  107%2 o
  -6   3   0   7316.10   7568.30    295.80  107%2 o
   9  -4   1    466.39    125.40     79.00  107%2 <
   5  -2   2   1621.90   1173.00    166.80  107%2 o
  -7   4   2    282.70    573.10    133.10  107%2 o
   8  -3   4    175.75    529.30     99.80  107%2 o
   4  -1   5     47.47    436.80    178.70  107%2 <
  -6   4   5   1770.50    966.40    160.10  107%2 o
  -8   5   5     87.93    102.30     85.60  107%2 <
   7  -2   7    358.71    478.30    108.20  107%2 o
   5  -1   7    804.89    743.20    155.10  107%2 o
   4   0  10  11164.00  10224.10    325.40  107%2 o
   2   1  10  15452.00  17307.50    403.50  107%2 o
   0   2  10   2211.60   2294.80    249.20  107%2 o
  -6   5  10    322.65    401.70    121.60  107%2 o
   2   2  15   1414.60   1178.20    135.00  107%2 o
   0   3  15    161.45    550.50    123.80  107%2 o
  -2   4  15    927.65    886.90    155.10  107%2 o
   1   3  17    182.82    212.00     84.00  107%2 <
  -6   1 -11    131.11     96.50     77.20  107%2 <
  -5   1  -8    100.96     77.00    122.80  107%2 <
  -7   2  -8     52.50    158.60     71.50  107%2 <
  -4   1  -5    208.85    449.80    145.00  107%2 o
  -6   2  -5    555.94    377.40    133.50  107%2 <
   8  -4  -2    198.44     67.60     86.40  107%2 <
  -8   4   0    276.66    335.60     92.00  107%2 o
   7  -3   1    205.13    353.10    115.20  107%2 o
   3  -1   2   1660.40   1842.60    238.00  107%2 o
   8  -3   3     11.41    -92.20     79.70  107%2 <
   6  -2   4   4912.70   3861.40    231.90  107%2 o
   7  -2   6      4.96   -141.50     92.40  107%2 <
   3   0   7    968.59    963.70    163.50  107%2 o
   6  -1   9     34.48      0.10     93.10  107%2 <
   7  -1  11     26.52     26.20     72.50  107%2 <
   3   1  12    120.55    206.20    109.00  107%2 <
   4   1  14     13.26    -17.10     74.70  107%2 <
   1  -3 -14    972.09    848.50    190.70  108%2 o
   8  -5  -8    128.45    377.90     96.00  108%2 o
   6  -4  -7   2643.70   3600.60    220.40  108%2 o
  -8   3  -5     24.97     87.10     66.50  108%2 <
   5  -3  -4   9099.70   8231.60    298.50  108%2 o
   4  -2  -1  18981.00  21339.40    435.40  108%2 o
  -3   2   3  67830.00  69837.70    789.60  108%2 o
  -5   3   3   6125.70   4593.50    250.30  108%2 o
  -7   4   3    217.85    266.10    102.40  108%2 <
   0   1   5   3761.50   5214.00    443.20  108%2 o
  -5   4   8   1689.00   1300.40    203.70  108%2 o
  -7   5   8    842.27    353.70    100.70  108%2 o
   1   2  12  12974.00  14777.40    389.30  108%2 o
  -2  -2 -16    698.45    474.30    102.10  108%2 o
  -1  -2 -13   1299.20   1130.10    176.80  108%2 o
  -3  -1 -13   1575.10   1463.20    154.70  108%2 o
  -5   0 -13     12.14    -12.70     68.80  108%2 <
  -2  -1 -10  18646.00  15740.00    392.30  108%2 o
  -4   0 -10  10086.00   9064.00    291.40  108%2 o
  -6   1 -10    118.11    106.30     85.50  108%2 <
  -5   1  -7    134.64    431.30    127.60  108%2 o
  -7   2  -7    132.85    337.20     98.70  108%2 o
   7  -4  -5    427.86    138.30    113.10  108%2 <
   8  -4  -3    459.80    342.90    106.50  108%2 o
   6  -3  -2   1425.40   1111.70    186.70  108%2 o
  -3   1  -2   1420.40   1509.30    275.30  108%2 o
  -5   2  -2   1723.80   1291.60    168.10  108%2 o
  -7   3  -2    365.96    495.90    118.90  108%2 o
  -9   4  -2     90.99    132.20     59.20  108%2 <
   9  -4  -1     69.76    -15.40     90.20  108%2 <
   7  -3   0    646.61   1092.40    156.60  108%2 o
   5  -2   1    530.40    960.50    156.80  108%2 o
  -6   3   1   1022.20   1012.30    183.70  108%2 o
  -8   4   1     75.19    113.30     81.30  108%2 <
   6  -2   3   3625.20   3626.70    240.00  108%2 o
   4  -1   4    277.15    247.60    159.80  108%2 <
   5  -1   6     32.86    337.60    134.40  108%2 <
  -6   4   6    984.28    526.10    164.50  108%2 o
  -8   5   6    103.62     55.00     78.10  108%2 <
   1   1   7  18362.00  20234.80    461.50  108%2 o
   6  -1   8     23.40     23.30    101.00  108%2 <
   7  -1  10     25.62     13.60     76.60  108%2 <
   5   0  11   1206.50    661.80    116.60  108%2 o
   2   2  14    396.37    117.60    113.60  108%2 <
   3   2  16      6.16     24.50     65.90  108%2 <
  -4  -1 -15     96.57    184.70     68.60  108%2 <
  -3   0  -7    610.75   1845.60    185.10  108%2 o
  -6   2  -4   3545.00   4353.20    222.60  108%2 o
  -8   3  -4    216.95    343.30     85.60  108%2 o
   8  -3   2    154.81     95.20     88.90  108%2 <
   7  -2   5    342.15    262.70     87.50  108%2 o
   8  -2   7    104.67     34.70     57.20  108%2 <
   3   1  11   1236.60   1183.00    158.30  108%2 o
   4   1  13      2.11    -62.50     75.30  108%2 <
  -2  -2 -16    330.17    474.30    102.10  109%2 o
   1  -3 -14    485.94    848.50    190.70  109%2 o
  -1  -2 -13    421.21   1130.10    176.80  109%2 o
  -3  -1 -13   2420.00   1463.20    154.70  109%2 o
  -5   0 -13     43.91    -12.70     68.80  109%2 <
   7  -5 -11     20.09     71.20    101.90  109%2 <
  -2  -1 -10  19479.00  15740.00    392.30  109%2 o
  -4   0 -10   8236.40   9064.00    291.40  109%2 o
  -6   1 -10    204.86    106.30     85.50  109%2 <
   8  -5  -8    374.01    377.90     96.00  109%2 o
  -5   1  -7     74.11    431.30    127.60  109%2 o
  -7   2  -7   1106.30    337.20     98.70  109%2 o
   7  -4  -5    497.80    138.30    113.10  109%2 <
   5  -3  -4   6066.20   8231.60    298.50  109%2 o
   8  -4  -3    129.43    342.90    106.50  109%2 o
   6  -3  -2    573.97   1111.70    186.70  109%2 o
  -3   1  -2   1700.70   1509.30    275.30  109%2 o
  -5   2  -2   2013.00   1291.60    168.10  109%2 o
  -7   3  -2    348.68    495.90    118.90  109%2 o
  -9   4  -2     21.45    132.20     59.20  109%2 <
   9  -4  -1    171.26    -15.40     90.20  109%2 <
   4  -2  -1  20022.00  21339.40    435.40  109%2 o
   7  -3   0   1415.10   1092.40    156.60  109%2 o
   5  -2   1   1067.00    960.50    156.80  109%2 o
  -6   3   1   1053.10   1012.30    183.70  109%2 o
  -8   4   1     78.67    113.30     81.30  109%2 <
   6  -2   3   3747.20   3626.70    240.00  109%2 o
  -3   2   3  63860.00  69837.70    789.60  109%2 o
   4  -1   4     65.25    247.60    159.80  109%2 <
   0   1   5   3729.20   5214.00    443.20  109%2 o
   5  -1   6    583.65    337.60    134.40  109%2 <
  -6   4   6    909.56    526.10    164.50  109%2 o
  -8   5   6     40.77     55.00     78.10  109%2 <
   6  -1   8     25.94     23.30    101.00  109%2 <
   7  -1  10    207.58     13.60     76.60  109%2 <
   0   2  10   2756.90   2294.80    249.20  109%2 o
   5   0  11    835.96    661.80    116.60  109%2 o
   1   2  12  15019.00  14777.40    389.30  109%2 o
  -5   5  13   1341.10   1456.80    175.20  109%2 o
   2   2  14    189.41    117.60    113.60  109%2 <
   3   2  16     11.87     24.50     65.90  109%2 <
  -4  -1 -15     73.97    184.70     68.60  109%2 <
  -6   1  -9    171.92    220.40     94.90  109%2 <
  -3   0  -7    995.14   1845.60    185.10  109%2 o
  -6   2  -4   4875.00   4353.20    222.60  109%2 o
  -8   3  -4    190.96    343.30     85.60  109%2 o
  -7   3  -1    328.95    226.20    112.80  109%2 <
  -9   4  -1    196.76     49.00     63.40  109%2 <
  -4   2   1  22150.00  21213.90    435.20  109%2 o
   8  -3   2    204.91     95.20     88.90  109%2 <
   7  -2   5    289.67    262.70     87.50  109%2 o
   8  -2   7     72.26     34.70     57.20  109%2 <
   3   1  11   1329.00   1183.00    158.30  109%2 o
   4   1  13      6.18    -62.50     75.30  109%2 <
   0  -3 -16     50.30    -44.50    100.90  110%2 <
  -2  -2 -15   1018.20    814.30    123.80  110%2 o
  -4  -1 -15     81.89    184.70     68.60  110%2 <
  -1  -2 -13    333.60   1130.10    176.80  110%2 o
  -3  -1 -12    116.32     84.10    133.50  110%2 <
   7  -5 -11     19.41     71.20    101.90  110%2 <
   5  -4 -10    145.94    657.20    170.50  110%2 o
  -2  -1 -10  17380.00  15740.00    392.30  110%2 o
  -6   1  -9    148.65    220.40     94.90  110%2 <
   6  -4  -8    374.19    319.50    150.30  110%2 <
   4  -3  -7   7888.80   8935.00    349.70  110%2 o
  -3   0  -7   1395.50   1845.60    185.10  110%2 o
  -7   2  -6      3.77    104.00     82.70  110%2 <
  -4   1  -4     60.81    381.80    180.70  110%2 <
  -7   3  -1    260.29    226.20    112.80  110%2 <
  -9   4  -1    218.65     49.00     63.40  110%2 <
  -4   2   1  20466.00  21213.90    435.20  110%2 o
  -7   4   4    147.03    149.10    100.50  110%2 <
  -4   3   6  25940.00  24567.00    486.50  110%2 o
   1   1   7  18448.00  20234.80    461.50  110%2 o
   2   1   9  12218.00  14270.00    364.50  110%2 o
  -7   5   9    187.56     88.40     97.10  110%2 <
   3   1  11   1248.00   1183.00    158.30  110%2 o
  -6   5  11    238.66    771.30    142.10  110%2 o
   6   0  12     83.75     10.10     69.70  110%2 <
   4   1  13      7.20    -62.50     75.30  110%2 <
   0   3  14   2567.60   2062.70    183.10  110%2 o
   1   3  16     84.61    148.90     88.80  110%2 <
  -4  -1 -14     33.90    130.20     74.30  110%2 <
  -5   0 -11    946.40    462.80    104.10  110%2 o
  -7   1 -11     87.52     79.80     60.20  110%2 <
   7  -4  -6     53.22    -31.50    106.20  110%2 <
  -5   1  -6     34.35    218.90    127.70  110%2 <
   5  -3  -5   2622.90   1904.00    237.20  110%2 o
   8  -4  -4     15.81     52.20     80.00  110%2 <
   6  -3  -3   1657.30   2367.40    217.60  110%2 o
  -6   2  -3   3902.80   3299.40    203.90  110%2 o
  -8   3  -3      7.80     29.50     75.00  110%2 <
   9  -4  -2    185.76     69.10     79.50  110%2 <
   7  -3  -1   1689.40   1651.00    161.20  110%2 o
  -5   2  -1    602.41    942.10    159.50  110%2 o
  -9   4   0     18.89      4.10     69.70  110%2 <
   8  -3   1     71.27    104.00     85.90  110%2 <
   6  -2   2     90.84    192.60    144.60  110%2 <
  -8   4   2     74.03     46.60     75.80  110%2 <
   9  -3   3     39.07   -101.90     69.60  110%2 <
   4  -1   3   1562.80   1886.70    231.70  110%2 o
   7  -2   4     53.01     52.40    106.60  110%2 <
   2   0   4    265.58    604.00    280.80  110%2 <
  -5   3   4   7725.70   7035.90    281.10  110%2 o
   5  -1   5    626.13    512.10    147.20  110%2 o
   8  -2   6      7.57     58.50     78.50  110%2 <
   6  -1   7    439.81    612.90    123.50  110%2 o
  -8   5   7     81.10     -6.40     78.30  110%2 <
   4   0   8     71.32     54.00    136.30  110%2 <
   7  -1   9     12.58     53.90     78.00  110%2 <
   5   1  14    120.28    193.80     71.30  110%2 <
   3   2  15      3.10    158.00     69.10  110%2 <
  -6   1  -8     28.81     81.80     65.00  110%2 <
   5  -2   0   5403.40   4715.20    231.40  110%2 o
  -6   3   2   1173.50   1215.80    158.10  110%2 o
  -2  -2 -15    930.09    814.30    123.80  111%2 o
  -4  -1 -14     50.88    130.20     74.30  111%2 <
  -3  -1 -12    132.85     84.10    133.50  111%2 <
  -5   0 -11    793.08    462.80    104.10  111%2 o
  -7   1 -11      9.18     79.80     60.20  111%2 <
   5  -4 -10    140.04    657.20    170.50  111%2 o
   0  -2 -10   4683.70   5230.80    288.60  111%2 o
   6  -4  -8    875.18    319.50    150.30  111%2 <
   1  -2  -8  48192.00  55295.60    719.00  111%2 o
   4  -3  -7   8465.00   8935.00    349.70  111%2 o
  -1  -1  -7  18975.00  16729.10    434.20  111%2 o
   7  -4  -6     69.55    -31.50    106.20  111%2 <
  -5   1  -6    224.73    218.90    127.70  111%2 <
   5  -3  -5   2161.80   1904.00    237.20  111%2 o
   0  -1  -5   9767.90   9489.20    495.10  111%2 o
   8  -4  -4     18.82     52.20     80.00  111%2 <
   6  -3  -3   1615.00   2367.40    217.60  111%2 o
  -6   2  -3   3410.20   3299.40    203.90  111%2 o
  -8   3  -3     10.09     29.50     75.00  111%2 <
   9  -4  -2    178.28     69.10     79.50  111%2 <
   7  -3  -1   1132.20   1651.00    161.20  111%2 o
  -5   2  -1    636.51    942.10    159.50  111%2 o
  -9   4   0     74.26      4.10     69.70  111%2 <
   8  -3   1     21.23    104.00     85.90  111%2 <
   3  -1   1   1847.80   1849.70    292.70  111%2 o
   6  -2   2    277.35    192.60    144.60  111%2 <
  -8   4   2    130.52     46.60     75.80  111%2 <
   9  -3   3     76.12   -101.90     69.60  111%2 <
   4  -1   3    755.96   1886.70    231.70  111%2 o
   7  -2   4    126.35     52.40    106.60  111%2 <
   2   0   4    445.20    604.00    280.80  111%2 <
  -5   3   4   8245.40   7035.90    281.10  111%2 o
   5  -1   5    472.87    512.10    147.20  111%2 o
   8  -2   6     11.65     58.50     78.50  111%2 <
  -4   3   6  25237.00  24567.00    486.50  111%2 o
   6  -1   7    268.81    612.90    123.50  111%2 o
  -8   5   7     95.46     -6.40     78.30  111%2 <
   4   0   8    216.25     54.00    136.30  111%2 <
   7  -1   9     16.90     53.90     78.00  111%2 <
  -7   5   9    332.97     88.40     97.10  111%2 <
  -6   5  11   1091.50    771.30    142.10  111%2 o
  -1   3  12   8484.80  10930.20    360.50  111%2 o
   2   2  13   1512.20   1220.90    152.20  111%2 o
   5   1  14    124.30    193.80     71.30  111%2 <
   0   3  14   2372.40   2062.70    183.10  111%2 o
   3   2  15      5.69    158.00     69.10  111%2 <
  -7   1 -10    162.09     21.90     61.30  111%2 <
  -6   1  -8     31.32     81.80     65.00  111%2 <
  -8   2  -7     99.96    -13.10     65.40  111%2 <
  -7   2  -5    399.38    370.30    105.30  111%2 o
  -2   0  -4    617.93   3096.30    293.20  111%2 o
   4  -2  -2    212.25    549.60    222.20  111%2 <
  -8   3  -2    106.80     40.00     77.80  111%2 <
   5  -2   0   5523.40   4715.20    231.40  111%2 o
  -7   3   0    800.55    626.10    121.70  111%2 o
   9  -3   2    106.12    271.20     75.70  111%2 o
  -6   3   2   1247.10   1215.80    158.10  111%2 o
   8  -2   5    138.05    558.20    112.80  111%2 o
   7  -1   8     27.27    116.80     89.40  111%2 <
   5   0   9  11691.00   9651.70    317.10  111%2 o
   1   2  11    634.86    926.30    190.60  111%2 o
   4   1  12     68.26    -55.30     91.10  111%2 <
   1  -3 -13   5318.70   3980.80    259.80  112%2 o
  -1  -2 -12   9501.20  10117.40    346.90  112%2 o
   0  -2 -10   4634.50   5230.80    288.60  112%2 o
  -7   1 -10     78.01     21.90     61.30  112%2 <
  -2  -1  -9  12902.00  11913.90    334.70  112%2 o
  -6   1  -8     23.21     81.80     65.00  112%2 <
  -1  -1  -7  18492.00  16729.10    434.20  112%2 o
  -8   2  -7     43.59    -13.10     65.40  112%2 <
   5  -3  -5   2428.20   1904.00    237.20  112%2 o
  -7   2  -5    333.64    370.30    105.30  112%2 o
  -2   0  -4   1480.90   3096.30    293.20  112%2 o
   4  -2  -2    360.30    549.60    222.20  112%2 <
  -8   3  -2     86.54     40.00     77.80  112%2 <
   5  -2   0   4146.50   4715.20    231.40  112%2 o
  -7   3   0    415.51    626.10    121.70  112%2 o
   3  -1   1   1456.70   1849.70    292.70  112%2 o
   9  -3   2     67.99    271.20     75.70  112%2 o
  -6   3   2   1149.80   1215.80    158.10  112%2 o
   8  -2   5    734.35    558.20    112.80  112%2 o
  -7   4   5    196.52    -12.20    102.00  112%2 <
  -6   4   7   2283.10   2215.80    194.00  112%2 o
   7  -1   8     84.42    116.80     89.40  112%2 <
   5   0   9  11200.00   9651.70    317.10  112%2 o
  -5   4   9    522.73    553.80    162.60  112%2 o
   3   1  10    934.74   1190.10    176.60  112%2 o
   1   2  11    623.70    926.30    190.60  112%2 o
   4   1  12     95.10    -55.30     91.10  112%2 <
  -1   3  12   8406.30  10930.20    360.50  112%2 o
   2   2  13    958.46   1220.90    152.20  112%2 o
  -1   4  16    534.15     70.60    116.30  112%2 <
  -3  -2 -16      4.25      0.80     73.30  112%2 <
  -2  -2 -14    570.63    318.80    119.00  112%2 <
  -4  -1 -13     42.50     -2.10     79.80  112%2 <
  -6   0 -12     19.02     26.60     63.30  112%2 <
  -3  -1 -11   1547.30    981.20    154.20  112%2 o
  -7   1  -9    112.53    151.80     71.40  112%2 <
  -4   0  -8    536.82    817.80    142.30  112%2 o
  -6   1  -7    397.42    540.20    118.00  112%2 o
   8  -4  -5    105.16     31.50     81.60  112%2 <
  -5   1  -5    773.01    502.70    137.60  112%2 o
  -7   2  -4     77.96     28.30    121.40  112%2 <
   9  -4  -3    569.80    198.90     83.10  112%2 <
  -4   1  -3    780.14   1668.00    186.20  112%2 o
   7  -3  -2   4449.20   4741.60    231.80  112%2 o
  -6   2  -2    265.27    379.80    168.20  112%2 <
  -3   1  -1   2774.20   2150.50    290.70  112%2 o
   8  -3   0     26.73    191.30     92.30  112%2 <
  -5   2   0   3501.30   4335.70    241.50  112%2 o
   6  -2   1    160.93     80.40    168.70  112%2 <
  -9   4   1      6.34      7.50     57.20  112%2 <
   7  -2   3   1075.00   1465.40    153.70  112%2 o
  -8   4   3    115.31    280.40     72.10  112%2 o
   5  -1   4    215.59    317.80    175.60  112%2 <
   6  -1   6    183.74    474.20    129.90  112%2 o
   5   1  13     69.35     70.80     72.80  112%2 <
   3   2  14     25.48    154.50     90.40  112%2 <
  -1  -3 -17    260.22    115.40     82.50  113%2 <
  -3  -2 -16      8.62      0.80     73.30  113%2 <
   0  -3 -15   1316.90    899.40    144.90  113%2 o
  -2  -2 -14    584.45    318.80    119.00  113%2 <
   1  -3 -13   4009.20   3980.80    259.80  113%2 o
  -4  -1 -13    102.19     -2.10     79.80  113%2 <
  -1  -2 -12  10675.00  10117.40    346.90  113%2 o
  -6   0 -12     36.08     26.60     63.30  113%2 <
  -3  -1 -11   1290.90    981.20    154.20  113%2 o
  -7   1  -9    118.28    151.80     71.40  113%2 <
  -4   0  -8    347.04    817.80    142.30  113%2 o
   7  -4  -7    448.03    334.10    115.70  113%2 <
  -6   1  -7    409.39    540.20    118.00  113%2 o
   8  -4  -5    172.88     31.50     81.60  113%2 <
  -5   1  -5    973.82    502.70    137.60  113%2 o
  -7   2  -4    109.48     28.30    121.40  113%2 <
  -4   1  -3   1144.50   1668.00    186.20  113%2 o
   7  -3  -2   4487.80   4741.60    231.80  113%2 o
  -6   2  -2    334.78    379.80    168.20  113%2 <
  -3   1  -1   2613.20   2150.50    290.70  113%2 o
   8  -3   0     28.98    191.30     92.30  113%2 <
  -5   2   0   3728.50   4335.70    241.50  113%2 o
   6  -2   1    243.95     80.40    168.70  113%2 <
  -2   1   1   3263.40   5522.90    505.50  113%2 o
  -9   4   1      8.97      7.50     57.20  113%2 <
  -4   2   2    556.88   -316.80    208.30  113%2 <
   7  -2   3    826.32   1465.40    153.70  113%2 o
  -8   4   3    119.49    280.40     72.10  113%2 o
   5  -1   4    294.07    317.80    175.60  113%2 <
   6  -1   6    308.94    474.20    129.90  113%2 o
   2   1   8    286.29    156.90    185.40  113%2 <
  -8   5   8     10.21     23.20     72.20  113%2 <
   0   2   9   1102.00    641.90    249.70  113%2 <
  -5   4   9    412.59    553.80    162.60  113%2 o
   6   0  10    366.89    304.80    117.00  113%2 <
   3   1  10    881.66   1190.10    176.60  113%2 o
  -7   5  10    271.98    227.10     86.60  113%2 <
   1   2  11    591.24    926.30    190.60  113%2 o
   5   1  13     71.72     70.80     72.80  113%2 <
   3   2  14     65.89    154.50     90.40  113%2 <
   1   3  15   1396.40   1138.90    136.80  113%2 o
  -1   4  16    471.35     70.60    116.30  113%2 <
   6  -4  -9   1283.00   2380.40    182.50  113%2 o
  -8   2  -6     10.42    -88.80     69.00  113%2 <
   9  -4  -4    147.40    295.90     76.20  113%2 o
   6  -3  -4    501.75   1228.70    191.70  113%2 o
  -9   3  -3     34.62    132.80     52.20  113%2 <
   8  -3  -1   2912.20   1628.90    161.20  113%2 o
   5  -2  -1   3377.90   2442.40    224.90  113%2 o
  -8   3  -1     15.32     45.60     77.90  113%2 <
   9  -3   1     14.37    238.40     77.40  113%2 o
  -7   3   1   1624.50   1395.00    152.20  113%2 o
   4  -1   2   5123.10   8323.10    321.00  113%2 o
  -9   4   2    657.96    204.90     92.20  113%2 <
  -6   3   3   3638.30   3951.30    230.50  113%2 o
   8  -2   4    103.40      5.80     85.00  113%2 <
   3   0   5  12726.00   9798.30    335.50  113%2 o
   7  -1   7     84.97    -97.20     92.90  113%2 <
   7   0  11     13.56     31.50     63.40  113%2 <
   4   1  11     21.59     15.90    101.00  113%2 <
  -5   3   5    456.87    992.00    211.90  114%2 o
   1   1   6   9456.60   9642.20    373.30  114%2 o
  -7   4   6    272.91    169.10     95.90  114%2 <
   3   1   9    114.28    750.40    165.20  114%2 o
   0   3  13   3205.10   2645.40    225.30  114%2 o
   2  -4 -16    125.15    618.00    155.50  114%2 o
   6  -4  -9   2553.70   2380.40    182.50  114%2 o
   7  -4  -7    343.55    334.10    115.70  114%2 <
   9  -4  -4    103.43    295.90     76.20  114%2 o
   6  -3  -4   1419.90   1228.70    191.70  114%2 o
  -9   3  -3     24.79    132.80     52.20  114%2 <
   8  -3  -1   1457.30   1628.90    161.20  114%2 o
   5  -2  -1    907.29   2442.40    224.90  114%2 o
  -8   3  -1      2.47     45.60     77.90  114%2 <
   9  -3   1      8.63    238.40     77.40  114%2 o
  -7   3   1   1782.60   1395.00    152.20  114%2 o
   4  -1   2   6410.60   8323.10    321.00  114%2 o
  -4   2   2    306.41   -316.80    208.30  114%2 <
  -9   4   2    370.88    204.90     92.20  114%2 <
  -6   3   3   3694.50   3951.30    230.50  114%2 o
   8  -2   4    158.98      5.80     85.00  114%2 <
  -8   4   4     18.90    234.70     84.30  114%2 <
   3   0   5  11550.00   9798.30    335.50  114%2 o
   7  -1   7     49.78    -97.20     92.90  114%2 <
  -8   5   8     63.51     23.20     72.20  114%2 <
  -7   5  10     79.68    227.10     86.60  114%2 <
   7   0  11     12.04     31.50     63.40  114%2 <
   4   1  11     30.21     15.90    101.00  114%2 <
   2   2  12   1258.20   1150.00    168.40  114%2 o
   4   2  15     87.40     55.30     81.20  114%2 <
   2   3  16     20.53    -46.30     74.90  114%2 <
  -3  -2 -15    128.28    501.60     86.50  114%2 o
  -5  -1 -14    113.45    131.60     70.00  114%2 <
  -2  -2 -13   1077.30   1232.40    152.70  114%2 o
  -4  -1 -12   3274.90   1861.60    148.70  114%2 o
  -3  -1 -10    408.65    458.40    138.60  114%2 o
  -5   0  -9   8997.20   8799.50    293.70  114%2 o
  -2  -1  -8   1051.20   2501.20    229.40  114%2 o
  -7   1  -8    153.72    245.50     80.50  114%2 o
   8  -4  -6     73.45    150.00     77.20  114%2 <
  -6   1  -6    144.44    607.60    131.00  114%2 o
  -8   2  -5    332.10    709.40    111.10  114%2 o
  -5   1  -4    392.57    342.30    133.50  114%2 <
  -7   2  -3   1401.30    786.20    136.80  114%2 o
   9  -3   0     68.06    -36.70     77.80  114%2 <
   7  -2   2     43.79    -89.20    110.10  114%2 <
   6  -1   5    195.63    383.20    138.50  114%2 <
   5   1  12     23.08    -33.10     77.90  114%2 <
  -9   3  -2     65.80    138.90     51.20  114%2 <
   8  -2   3    222.43    351.10     80.30  114%2 o
   7  -1   6    486.65    513.40     97.30  114%2 o
   8  -3  -2    680.00    911.10    122.80  115%2 o
  -4   1  -2   7131.90   9130.00    300.90  115%2 o
  -6   2  -1   1109.80   1230.70    158.30  115%2 o
   6  -2   0   1933.10   2309.70    194.60  115%2 o
   3  -1   0  35075.00  49282.90    636.80  115%2 o
  -8   3   0    233.39     77.50     78.20  115%2 <
  -5   2   1    447.80    653.70    177.50  115%2 o
  -7   3   2   2326.90   2419.40    181.50  115%2 o
   5  -1   3  10319.00   9387.70    299.90  115%2 o
  -9   4   3    218.63    107.70     64.00  115%2 <
  -3   2   4  99010.00 110239.00    938.80  115%2 o
  -5   3   5   1085.10    992.00    211.90  115%2 o
   4   0   6    388.80    535.50    151.10  115%2 o
   1   1   6   8869.50   9642.20    373.30  115%2 o
  -7   4   6     70.28    169.10     95.90  115%2 <
   8  -1   7    171.90    132.50     87.80  115%2 <
  -6   4   8    638.67    673.20    155.40  115%2 o
   3   1   9   1479.40    750.40    165.20  115%2 o
   4   1  10   3211.00   1476.00    172.70  115%2 o
  -6   5  12    225.53    146.20    107.90  115%2 <
   6   1  13     16.96    146.30     69.90  115%2 <
   3   2  13    335.20    200.50     90.80  115%2 <
   0   3  13   3952.10   2645.40    225.30  115%2 o
   2  -4 -16    436.42    618.00    155.50  115%2 o
  -1  -3 -16    618.43    174.30    109.70  115%2 <
   5  -4 -11   2548.50   1975.70    195.40  115%2 o
  -1  -2 -11    629.40   1521.50    212.10  115%2 o
   7  -4  -8    544.74    315.20    119.60  115%2 <
   5  -3  -6  14895.00  11386.00    366.30  115%2 o
   4  -2  -3  11680.00   7928.20    340.40  115%2 o
  -3  -2 -15     82.11    501.60     86.50  115%2 o
  -5  -1 -14     96.30    131.60     70.00  115%2 <
  -2  -2 -13   1123.90   1232.40    152.70  115%2 o
  -4  -1 -12   1477.60   1861.60    148.70  115%2 o
  -3  -1 -10    382.64    458.40    138.60  115%2 o
  -5   0  -9   9428.10   8799.50    293.70  115%2 o
  -2  -1  -8   7412.30   2501.20    229.40  115%2 o
  -7   1  -8    218.35    245.50     80.50  115%2 o
   8  -4  -6     96.10    150.00     77.20  115%2 <
  -6   1  -6    520.63    607.60    131.00  115%2 o
  -3   0  -5   6166.10   7355.90    310.00  115%2 o
  -8   2  -5    641.58    709.40    111.10  115%2 o
  -5   1  -4    240.98    342.30    133.50  115%2 <
   7  -3  -3    299.64    752.00    141.20  115%2 o
  -7   2  -3   1138.10    786.20    136.80  115%2 o
   9  -3   0     15.16    -36.70     77.80  115%2 <
   7  -2   2     81.63    -89.20    110.10  115%2 <
  -8   4   4     55.71    234.70     84.30  115%2 <
   6  -1   5    247.53    383.20    138.50  115%2 <
   5   1  12      9.27    -33.10     77.90  115%2 <
   2   2  12    863.49   1150.00    168.40  115%2 o
   2   3  16     32.05    -46.30     74.90  115%2 <
  -5  -1 -13    225.61     -6.50     79.50  115%2 <
  -6   0 -10    124.64     76.70     81.20  115%2 <
  -7   1  -7    159.22    -35.00     82.70  115%2 <
  -9   3  -2     62.72    138.90     51.20  115%2 <
   8  -2   3    106.85    351.10     80.30  115%2 o
   7  -1   6    863.13    513.40     97.30  115%2 o
   8  -3  -2   1147.20    911.10    122.80  116%2 o
  -4   1  -2   6513.60   9130.00    300.90  116%2 o
  -7   2  -2    181.42    448.80    110.50  116%2 o
   9  -3  -1     52.06     92.10     66.50  116%2 <
  -9   3  -1     53.44    -68.60     66.60  116%2 <
   6  -2   0   1129.10   2309.70    194.60  116%2 o
   3  -1   0  47872.00  49282.90    636.80  116%2 o
  -3   1   0  42908.00  47957.00    637.60  116%2 o
   7  -2   1   1358.00    710.80    134.20  116%2 o
  -5   2   1    544.24    653.70    177.50  116%2 o
  -8   3   1   2506.70   1180.70    155.30  116%2 o
   8  -2   2     69.39    131.50     92.20  116%2 <
  -7   3   2   2720.60   2419.40    181.50  116%2 o
   5  -1   3  12126.00   9387.70    299.90  116%2 o
  -9   4   3    148.32    107.70     64.00  116%2 <
   6  -1   4   2118.80   2828.30    196.80  116%2 o
  -6   3   4   2091.50   2761.50    219.20  116%2 o
   7  -1   5    482.79    440.30    122.90  116%2 o
  -8   4   5     13.08    -37.60     60.30  116%2 <
   8  -1   7    110.08    132.50     87.80  116%2 <
   5   0   7   3529.40   2621.30    198.40  116%2 o
   2   1   7  30570.00  22938.40    455.50  116%2 o
  -4   3   7   2674.30   1933.50    265.20  116%2 o
   6   0   8   1006.40    725.90    128.20  116%2 o
  -6   4   8    710.47    673.20    155.40  116%2 o
   4   1  10   1205.00   1476.00    172.70  116%2 o
   1   2  10  13401.00  14120.90    352.90  116%2 o
   5   1  11    301.33    179.50    103.70  116%2 <
   6   1  12     18.66    222.00     70.50  116%2 o
  -6   5  12    126.05    146.20    107.90  116%2 <
   4   2  14     71.34    115.80     88.40  116%2 <
   1   3  14    712.43    416.70    133.70  116%2 o
   2   3  15    572.01    408.60    100.00  116%2 o
  -1  -3 -16    316.52    174.30    109.70  116%2 <
   0  -3 -14   1762.90   1795.60    171.50  116%2 o
  -3  -2 -14     28.34    -22.30     77.50  116%2 <
   5  -4 -11    860.82   1975.70    195.40  116%2 o
  -1  -2 -11   1474.10   1521.50    212.10  116%2 o
  -4  -1 -11     70.08    100.90     99.50  116%2 <
  -7   0 -11     23.76      9.30     62.70  116%2 <
   0  -2  -9   1340.20   1724.30    252.80  116%2 o
  -3  -1  -9    129.86    553.10    168.80  116%2 o
   7  -4  -8    154.11    315.20    119.60  116%2 <
   8  -4  -7     54.68    -26.40     95.40  116%2 <
  -1  -1  -6   2192.10   4766.60    357.00  116%2 o
  -4   0  -6   1586.30   2318.90    212.90  116%2 o
   6  -3  -5    767.33    699.40    206.10  116%2 o
  -6   1  -5    228.48    359.00    126.60  116%2 <
   4  -2  -3   2523.60   7928.20    340.40  116%2 o
   9  -2   3     30.78    -12.20     74.90  116%2 <
   7   0   9     57.24    173.10     83.80  116%2 <
  -5  -1 -13    117.85     -6.50     79.50  116%2 <
  -6   0 -10    385.55     76.70     81.20  116%2 <
  -7   1  -7    118.85    -35.00     82.70  116%2 <
  -8   2  -4    121.42      4.30     58.20  116%2 <
   8  -3  -2   1291.70    911.10    122.80  117%2 o
   5  -2  -2   1382.00    612.20    195.70  117%2 o
  -7   2  -2    445.35    448.80    110.50  117%2 o
   9  -3  -1     85.57     92.10     66.50  117%2 <
  -9   3  -1     44.30    -68.60     66.60  117%2 <
   3  -1   0  46633.00  49282.90    636.80  117%2 o
  -3   1   0  43506.00  47957.00    637.60  117%2 o
   7  -2   1   1823.10    710.80    134.20  117%2 o
   4  -1   1   2205.50   1343.70    247.00  117%2 o
  -5   2   1    791.68    653.70    177.50  117%2 o
  -8   3   1   1555.90   1180.70    155.30  117%2 o
   8  -2   2     87.80    131.50     92.20  117%2 <
  -9   4   3    226.31    107.70     64.00  117%2 <
   6  -1   4   1883.40   2828.30    196.80  117%2 o
  -6   3   4   1882.90   2761.50    219.20  117%2 o
   7  -1   5    551.06    440.30    122.90  117%2 o
  -8   4   5     19.27    -37.60     60.30  117%2 <
   5   0   7   3469.50   2621.30    198.40  117%2 o
   2   1   7  23993.00  22938.40    455.50  117%2 o
  -4   3   7   2659.10   1933.50    265.20  117%2 o
   6   0   8   1039.00    725.90    128.20  117%2 o
  -6   4   8    717.66    673.20    155.40  117%2 o
   4   1  10    865.96   1476.00    172.70  117%2 o
   1   2  10  14441.00  14120.90    352.90  117%2 o
   5   1  11    243.60    179.50    103.70  117%2 <
   2   2  11   1293.70    888.60    186.70  117%2 o
  -7   5  11     27.53   -111.80     86.10  117%2 <
   6   1  12     62.47    222.00     70.50  117%2 o
   4   2  14     54.86    115.80     88.40  117%2 <
   1   3  14    443.41    416.70    133.70  117%2 o
   2   3  15    322.72    408.60    100.00  117%2 o
   0  -3 -14   1614.00   1795.60    171.50  117%2 o
  -3  -2 -14     22.16    -22.30     77.50  117%2 <
  -2  -2 -12   1785.90   1756.90    170.00  117%2 o
  -5  -1 -12     61.47    156.40     79.40  117%2 <
   5  -4 -11   1281.50   1975.70    195.40  117%2 o
  -4  -1 -11     79.57    100.90     99.50  117%2 <
  -7   0 -11     15.98      9.30     62.70  117%2 <
   0  -2  -9   3112.00   1724.30    252.80  117%2 o
  -3  -1  -9    296.79    553.10    168.80  117%2 o
   7  -4  -8   1059.60    315.20    119.60  117%2 <
   8  -4  -7    107.36    -26.40     95.40  117%2 <
  -1  -1  -6   1472.50   4766.60    357.00  117%2 o
  -4   0  -6   2278.90   2318.90    212.90  117%2 o
  -7   1  -6    835.18    668.70    115.40  117%2 o
   6  -3  -5   1469.50    699.40    206.10  117%2 o
  -6   1  -5    221.26    359.00    126.60  117%2 <
   7  -3  -4    569.72    460.00    137.40  117%2 o
  -5   1  -3   9022.30   9005.30    316.70  117%2 o
  -6   2   0   2823.00   1739.40    175.80  117%2 o
   9  -2   3     35.99    -12.20     74.90  117%2 <
   8  -1   6     38.84     98.00     80.40  117%2 <
   7   0   9    168.23    173.10     83.80  117%2 <
  -5  -1 -13    318.33     -6.50     79.50  117%2 <
  -6   0 -10    159.84     76.70     81.20  117%2 <
  -7   1  -7     67.09    -35.00     82.70  117%2 <
  -8   2  -4     86.74      4.30     58.20  117%2 <
  -1  -3 -15   1507.80   1028.40    135.30  118%2 o
  -4  -2 -15     47.02    -32.80     64.90  118%2 <
   1  -3 -12   5479.80   6509.70    312.90  118%2 o
  -2  -2 -12   1862.50   1756.90    170.00  118%2 o
  -5  -1 -12     86.28    156.40     79.40  118%2 <
  -7   0 -11     12.38      9.30     62.70  118%2 <
   6  -4 -10   1177.20    934.90    160.60  118%2 o
   0  -2  -9   1874.70   1724.30    252.80  118%2 o
  -3  -1  -9    103.75    553.10    168.80  118%2 o
   8  -4  -7     58.14    -26.40     95.40  118%2 <
  -4   0  -6   1343.80   2318.90    212.90  118%2 o
  -7   1  -6    481.20    668.70    115.40  118%2 o
   6  -3  -5    980.82    699.40    206.10  118%2 o
   7  -3  -4    401.46    460.00    137.40  118%2 o
   8  -3  -3    186.50    284.50     93.00  118%2 o
  -5   1  -3   6931.60   9005.30    316.70  118%2 o
  -8   2  -3     85.62     57.50     79.90  118%2 <
   5  -2  -2    566.36    612.20    195.70  118%2 o
  -7   2  -2    228.95    448.80    110.50  118%2 o
   6  -2  -1   2335.00   1631.00    180.60  118%2 o
  -3   1   0  38502.00  47957.00    637.60  118%2 o
  -6   2   0   2192.30   1739.40    175.80  118%2 o
  -9   3   0     43.17     75.90     67.30  118%2 <
   4  -1   1   1875.20   1343.70    247.00  118%2 o
  -8   3   1   1707.90   1180.70    155.30  118%2 o
   8  -2   2    105.76    131.50     92.20  118%2 <
   5  -1   2   3665.10   5114.70    252.80  118%2 o
   9  -2   3     35.98    -12.20     74.90  118%2 <
  -4   2   3   9930.30   7743.30    327.00  118%2 o
  -7   3   3    423.80     79.10    128.90  118%2 <
  -6   3   4   1954.40   2761.50    219.20  118%2 o
  -9   4   4     39.28     98.90     67.20  118%2 <
   7  -1   5    349.90    440.30    122.90  118%2 o
   8  -1   6     19.22     98.00     80.40  118%2 <
   2   1   7  28441.00  22938.40    455.50  118%2 o
  -4   3   7   1910.90   1933.50    265.20  118%2 o
  -7   4   7    434.34    679.50    131.00  118%2 o
   6   0   8    970.40    725.90    128.20  118%2 o
   3   1   8   1707.50   1370.30    200.80  118%2 o
   7   0   9     74.00    173.10     83.80  118%2 <
   2   2  11   1926.70    888.60    186.70  118%2 o
  -7   5  11     26.19   -111.80     86.10  118%2 <
   6   1  12     13.94    222.00     70.50  118%2 o
   3   2  12   2150.20   2642.60    185.90  118%2 o
   4   2  13    194.99      4.70     95.70  118%2 <
   2   3  15    390.26    408.60    100.00  118%2 o
  -1   4  15    153.77     97.40    116.50  118%2 <
   3   3  16     68.30    -17.00     65.10  118%2 <
  -6  -1 -13     22.52     82.60     59.40  118%2 <
  -4  -1 -10   2852.10   2409.90    184.00  118%2 o
  -5   0  -7   3226.40   3001.20    198.20  118%2 o
  -8   1  -7    104.67     18.90     76.30  118%2 <
  -6   1  -4   1100.60   1574.20    179.80  118%2 o
   9  -3  -2     91.18    165.00     81.80  118%2 <
   7  -2   0    988.63    455.20    134.50  118%2 o
   4   1   9   3952.10   3626.90    214.00  118%2 o
   5   2  14    136.17     78.60     67.10  118%2 <
  -2  -3 -16     67.65    138.60     87.00  119%2 <
  -1  -3 -15   1872.10   1028.40    135.30  119%2 o
  -4  -2 -15    112.25    -32.80     64.90  119%2 <
  -3  -2 -13    505.84    607.90    112.90  119%2 o
  -6  -1 -13     13.25     82.60     59.40  119%2 <
   1  -3 -12   8534.10   6509.70    312.90  119%2 o
  -1  -2 -10  10790.00  13971.10    374.20  119%2 o
  -4  -1 -10   1936.20   2409.90    184.00  119%2 o
   7  -4  -9    876.02    776.50    133.30  119%2 o
   8  -4  -8    106.21    120.80     91.80  119%2 <
   5  -3  -7   1756.20   2804.60    252.00  119%2 o
  -2  -1  -7  14405.00  15524.60    398.80  119%2 o
  -5   0  -7   3560.90   3001.20    198.20  119%2 o
  -8   1  -7    124.83     18.90     76.30  119%2 <
  -6   1  -4   1682.80   1574.20    179.80  119%2 o
   9  -3  -2     57.02    165.00     81.80  119%2 <
  -4   1  -1   2151.60   1669.70    209.70  119%2 o
  -7   2  -1    324.98    175.30    115.40  119%2 <
   7  -2   0    547.98    455.20    134.50  119%2 o
  -9   3   0     23.68     75.90     67.30  119%2 <
   8  -2   1    764.38    252.20    102.80  119%2 <
   9  -2   2     57.50     36.40     78.20  119%2 <
   5  -1   2   3504.20   5114.70    252.80  119%2 o
  -5   2   2   1137.20    906.30    183.30  119%2 o
   6  -1   3   1296.60    660.70    162.80  119%2 o
  -7   3   3    466.41     79.10    128.90  119%2 <
   7  -1   4     18.30     29.30    111.20  119%2 <
  -5   3   6   3738.00   3536.30    267.20  119%2 o
  -8   4   6    191.16     35.30     84.60  119%2 <
   3   1   8   1331.10   1370.30    200.80  119%2 o
   4   1   9   3827.50   3626.90    214.00  119%2 o
   5   1  10   1453.60   1496.50    150.00  119%2 o
  -5   4  10    442.46    525.70    173.90  119%2 o
   6   1  11    143.59     68.80     84.70  119%2 <
  -1   3  11   1411.40   1294.10    254.40  119%2 o
   3   2  12   3252.40   2642.60    185.90  119%2 o
   4   2  13    316.17      4.70     95.70  119%2 <
   5   2  14    148.09     78.60     67.10  119%2 <
  -1   4  15    323.72     97.40    116.50  119%2 <
   0   4  16   1898.90   1453.60    145.40  119%2 o
  -4  -2 -14     52.01    111.20     70.60  119%2 <
  -5  -1 -11    386.53    415.70     99.90  119%2 o
  -6   0  -8   1331.60    710.40    124.40  119%2 o
   6  -3  -6    570.27    887.10    177.20  119%2 o
  -7   1  -5    393.45    435.30    111.60  119%2 o
  -8   2  -2     91.91    157.00     79.90  119%2 <
  -9   3   1     60.54     26.80     67.80  119%2 <
  -8   3   2    699.00    792.40    104.10  119%2 o
   8  -1   5     31.20    -44.00     60.70  119%2 <
  -2  -3 -16    256.07    138.60     87.00  120%2 <
   2  -4 -15   1257.00   1199.50    181.40  120%2 o
  -4  -2 -14    152.74    111.20     70.60  120%2 <
   0  -3 -13   5495.60   3119.70    229.00  120%2 o
  -6  -1 -12    157.47    -57.30     69.60  120%2 <
  -2  -2 -11    888.24   1005.70    184.00  120%2 o
  -5  -1 -11    221.77    415.70     99.90  120%2 o
  -1  -2 -10   9753.90  13971.10    374.20  120%2 o
   7  -4  -9    859.29    776.50    133.30  120%2 o
  -7   0  -9    157.59     51.40     77.70  120%2 <
   8  -4  -8    316.68    120.80     91.80  120%2 <
  -3  -1  -8    757.92   1383.00    193.80  120%2 o
  -6   0  -8   1171.30    710.40    124.40  120%2 o
   5  -3  -7   1411.60   2804.60    252.00  120%2 o
   6  -3  -6    369.30    887.10    177.20  120%2 o
  -8   1  -6     13.87     18.00     72.50  120%2 <
   7  -3  -5    822.60   1206.10    153.30  120%2 o
   3  -2  -5  35137.00  29545.50    570.00  120%2 o
  -7   1  -5    468.32    435.30    111.60  120%2 o
   8  -3  -4    761.46    565.90    126.60  120%2 o
   4  -2  -4   6268.50   7351.60    332.10  120%2 o
   9  -3  -3     55.59    -80.70    100.70  120%2 <
  -5   1  -2   5227.40   5483.70    249.00  120%2 o
  -8   2  -2     69.85    157.00     79.90  120%2 <
  -6   2   1    428.52    635.60    163.30  120%2 o
  -9   3   1     63.76     26.80     67.80  120%2 <
  -5   2   2    766.96    906.30    183.30  120%2 o
  -8   3   2    736.12    792.40    104.10  120%2 o
   8  -1   5     31.65    -44.00     60.70  120%2 <
  -6   3   5    416.05    785.60    164.70  120%2 o
  -5   3   6   3037.40   3536.30    267.20  120%2 o
  -8   4   6    451.67     35.30     84.60  120%2 <
   0   2   8   1700.10   3595.80    311.00  120%2 o
   1   2   9   2253.80   2759.50    234.00  120%2 o
  -6   4   9    817.10    555.20    136.70  120%2 o
  -5   4  10    525.38    525.70    173.90  120%2 o
   0   3  12    198.85    598.20    174.40  120%2 o
   1   3  13   1604.20    950.30    150.50  120%2 o
   2   3  14     56.85    123.60     97.60  120%2 <
   3   3  15     93.56    -17.90     81.10  120%2 <
  -4  -1  -9   4310.80   3550.90    202.20  120%2 o
  -6   1  -3   1389.50   1109.80    160.90  120%2 o
  -9   2  -3     15.52    -53.90     42.40  120%2 <
   7  -2  -1   3736.10   3286.60    201.70  120%2 o
   8  -2   0    140.55    311.30    100.60  120%2 o
   9  -2   1    221.45    101.60     83.00  120%2 <
   8  -1   4     68.88    190.70    103.50  120%2 <
   8   0   8      8.39    -61.20     82.90  120%2 <
   6   1  10    148.55     56.90     93.50  120%2 <
   2   2  10   1475.20   1646.10    179.60  120%2 o
   7   1  11     17.37     38.00     73.60  120%2 <
   3   2  11    210.02    421.70    132.80  120%2 o
   4   2  12    235.15     98.40     89.90  120%2 <
   5   2  13    152.10    166.20     79.90  120%2 <
   1  -4 -16    209.42    483.90    122.70  121%2 o
  -1  -3 -14   1314.80    732.20    130.50  121%2 o
  -3  -2 -12   1630.20   1619.50    159.00  121%2 o
  -4  -1  -9   3722.20   3550.90    202.20  121%2 o
   4  -2  -4   5373.20   7351.60    332.10  121%2 o
  -7   1  -4     95.53    104.50    102.30  121%2 <
   5  -2  -3   4388.80   4786.10    291.30  121%2 o
  -6   1  -3   1184.50   1109.80    160.90  121%2 o
   6  -2  -2    248.20    813.10    161.70  121%2 o
   7  -2  -1   3197.50   3286.60    201.70  121%2 o
   3  -1  -1  15224.00  31143.50    571.50  121%2 o
   8  -2   0    119.75    311.30    100.60  121%2 o
   4  -1   0   5841.00   6335.00    323.20  121%2 o
  -7   2   0    774.96    475.80    119.60  121%2 o
   9  -2   1    189.68    101.60     83.00  121%2 <
   5  -1   1   3640.70   4431.20    266.30  121%2 o
   6  -1   2   1432.80   1636.00    179.10  121%2 o
   2   0   2  61053.00  42584.10    680.40  121%2 o
   7  -1   3   1504.80   1832.00    170.20  121%2 o
   3   0   3   2556.30   4132.70    322.60  121%2 o
  -8   3   3     35.12     48.00     91.20  121%2 <
   8  -1   4     58.90    190.70    103.50  121%2 <
   4   0   4   3945.30   3110.10    257.90  121%2 o
  -7   3   4    319.92    395.90    107.70  121%2 o
   5   0   5   1870.00   1934.70    191.80  121%2 o
   1   1   5  14395.00  15202.80    465.80  121%2 o
   6   0   6   1283.00   1812.10    176.10  121%2 o
   2   1   6   2848.80   2590.90    273.10  121%2 o
   7   0   7     25.98     12.60    105.20  121%2 <
   3   1   7   5722.80   3813.60    250.70  121%2 o
  -8   4   7     61.49    -27.10     76.70  121%2 <
   8   0   8      7.28    -61.20     82.90  121%2 <
   4   1   8   2710.40   2488.80    190.40  121%2 o
  -7   4   8     95.41   -101.70    107.60  121%2 <
   5   1   9    402.51    473.50    131.80  121%2 o
   1   2   9   1944.60   2759.50    234.00  121%2 o
  -6   4   9    701.90    555.20    136.70  121%2 o
   6   1  10    126.05     56.90     93.50  121%2 <
   2   2  10   1267.80   1646.10    179.60  121%2 o
   7   1  11     14.76     38.00     73.60  121%2 <
   3   2  11    180.53    421.70    132.80  121%2 o
   4   2  12    200.60     98.40     89.90  121%2 <
   5   2  13    129.00    166.20     79.90  121%2 <
  -3  -3 -16    118.04     98.40     73.20  121%2 <
  -2  -3 -15    421.57    355.10    102.70  121%2 o
  -5  -2 -14     89.78    -62.90     64.20  121%2 <
  -4  -2 -13    464.85    243.50     89.50  121%2 <
  -6  -1 -11    102.33    137.90     79.20  121%2 <
  -5  -1 -10    972.65    696.70    104.20  121%2 o
   8  -4  -9     55.61     79.10     77.50  121%2 <
  -8   1  -5     33.14     62.90     75.80  121%2 <
   9  -3  -4      9.00    -59.50     79.70  121%2 <
  -9   2  -2     49.76     40.50     69.50  121%2 <
  -8   2  -1     74.35      6.00     90.10  121%2 <
  -9   3   2     20.38    -22.30     60.10  121%2 <
   4   3  15    134.21    104.90     81.60  121%2 <
   9  -1   4      6.37      0.20     49.50  121%2 <
   1  -4 -16    182.84    483.90    122.70  122%2 o
  -3  -3 -16     51.70     98.40     73.20  122%2 <
  -2  -3 -15    582.90    355.10    102.70  122%2 o
  -5  -2 -14    103.72    -62.90     64.20  122%2 <
  -4  -2 -13    507.53    243.50     89.50  122%2 <
   6  -4 -11    144.17    216.20    121.90  122%2 <
  -6  -1 -11    209.13    137.90     79.20  122%2 <
   7  -4 -10    163.55     85.40    109.90  122%2 <
   8  -4  -9     58.86     79.10     77.50  122%2 <
  -1  -1  -5  18035.00  23147.80    500.40  122%2 o
  -8   1  -5     32.97     62.90     75.80  122%2 <
   9  -3  -4      6.01    -59.50     79.70  122%2 <
  -2   0  -2  54838.00  42307.50    652.60  122%2 o
  -9   2  -2     47.46     40.50     69.50  122%2 <
  -1   0  -1  71685.00  65134.20    971.20  122%2 o
  -8   2  -1    115.28      6.00     90.10  122%2 <
  -3   1   1  21511.00  41595.30    612.70  122%2 o
   2   0   2  61470.00  42584.10    680.40  122%2 o
  -2   1   2  88522.00 156109.00   1181.90  122%2 o
  -9   3   2     15.32    -22.30     60.10  122%2 <
   3   0   3   4264.10   4132.70    322.60  122%2 o
  -4   2   4  10829.00   6492.60    325.10  122%2 o
   2   1   6   1485.70   2590.90    273.10  122%2 o
  -8   4   7     43.37    -27.10     76.70  122%2 <
   4   3  15    290.01    104.90     81.60  122%2 <
   1   4  16     60.92     83.00     95.40  122%2 <
  -4  -1  -8   1219.60   2340.60    203.10  122%2 o
  -3  -1  -7   5828.80   3950.10    245.20  122%2 o
   7  -3  -6    235.36    195.10    118.00  122%2 <
  -2  -1  -6   1720.00   4055.20    273.10  122%2 o
  -6   0  -6   4053.30   1251.10    173.20  122%2 o
   8  -3  -5     41.08    -28.60     72.60  122%2 <
  -5   0  -5   2443.70   2271.60    188.90  122%2 o
  -4   0  -4   2005.80   2488.40    209.60  122%2 o
  -3   0  -3   4706.60   3646.20    267.10  122%2 o
  -7   1  -3   1350.70   1548.30    179.50  122%2 o
   7  -2  -2     47.49   -185.00    133.90  122%2 <
  -6   1  -2   3262.10   1033.10    188.80  122%2 o
   8  -2  -1    121.71    106.50     85.30  122%2 <
  -5   1  -1   4467.70   4879.50    261.60  122%2 o
   9  -2   0     29.50    -56.00     73.00  122%2 <
  -4   1   0   2221.00   4537.50    297.40  122%2 o
   7  -1   2    318.30     72.80    120.10  122%2 <
  -6   2   2    990.64   1013.20    185.60  122%2 o
   8  -1   3     79.65     41.60     89.30  122%2 <
  -5   2   3   2116.90   3928.10    258.00  122%2 o
   9  -1   4      3.85      0.20     49.50  122%2 <
   6   1   9      9.75    -16.80     87.60  122%2 <
   7   1  10     12.19    -54.60     67.30  122%2 <
   4   2  11     53.25     84.90    118.00  122%2 <
   5   2  12    444.16    177.10     97.20  122%2 <
   3   3  14     73.52     85.60     77.00  122%2 <
   5  -4 -12   1894.80   1850.80    214.40  123%2 o
   6  -4 -11    196.92    216.20    121.90  123%2 <
  -3  -2 -11    107.80   -270.10    138.80  123%2 <
  -2  -2 -10    919.26   1332.80    189.50  123%2 o
  -1  -2  -9   1944.80   2139.70    224.20  123%2 o
  -5  -1  -9    345.61    186.90    133.20  123%2 <
   0  -2  -8    865.77   1291.20    264.50  123%2 o
  -4  -1  -8   2638.00   2340.60    203.10  123%2 o
   6  -3  -7     41.87      4.90    143.30  123%2 <
  -3  -1  -7   4453.40   3950.10    245.20  123%2 o
   7  -3  -6    263.71    195.10    118.00  123%2 <
  -6   0  -6    767.34   1251.10    173.20  123%2 o
  -5   0  -5   3565.40   2271.60    188.90  123%2 o
  -7   1  -3   1676.80   1548.30    179.50  123%2 o
   7  -2  -2     10.67   -185.00    133.90  123%2 <
  -6   1  -2    692.61   1033.10    188.80  123%2 o
  -7   2   1   3178.10   3432.10    214.50  123%2 o
   7  -1   2    127.36     72.80    120.10  123%2 <
  -6   2   2    348.20   1013.20    185.60  123%2 o
  -5   2   3   4386.80   3928.10    258.00  123%2 o
  -4   2   4   6887.30   6492.60    325.10  123%2 o
  -3   2   5  46909.00  47582.30    667.60  123%2 o
  -7   3   5    688.58    628.00    142.60  123%2 o
  -6   3   6    226.39    819.60    186.70  123%2 o
  -5   3   7   1439.70   2656.80    257.40  123%2 o
   5   1   8     21.87    134.40    155.30  123%2 <
   4   2  11     19.11     84.90    118.00  123%2 <
   1   3  12   1245.70    848.80    187.50  123%2 o
   2   3  13     55.53    208.20    113.10  123%2 <
  -1   4  14   1789.10   2112.80    194.30  123%2 o
   0   4  15   1742.70   1216.20    164.60  123%2 o
  -3  -3 -15     53.88    -38.30     75.80  123%2 <
  -2  -3 -14     34.59     67.00     89.40  123%2 <
  -1  -3 -13   1307.60    814.70    141.40  123%2 o
  -5  -2 -13    125.30     79.30     66.40  123%2 <
   0  -3 -12     75.70    192.60    189.60  123%2 <
  -4  -2 -12    161.78     56.40     82.50  123%2 <
  -7  -1 -11     11.06    -10.50     64.70  123%2 <
  -6  -1 -10    142.04     59.80     81.10  123%2 <
  -7   0  -7     16.85    -17.30     88.30  123%2 <
   9  -3  -5      2.50    -41.00     62.70  123%2 <
  -8   1  -4     39.87    171.50     81.20  123%2 <
   6  -2  -3     74.62    178.10    137.90  123%2 <
   9  -2  -1     91.17    130.60     70.70  123%2 <
  -9   2  -1    194.71     82.10     75.40  123%2 <
  -8   2   0    219.45    333.80    101.60  123%2 o
   6  -1   1    438.08    395.90    142.50  123%2 <
   9  -1   3    135.38   -180.30     79.50  123%2 <
  -9   3   3     31.72     13.30     65.50  123%2 <
  -8   3   4   1167.20   1014.90    118.20  123%2 o
   4   1   7    598.37    585.10    147.50  123%2 o
  -8   4   8    271.75    253.70     88.70  123%2 <
   3   2  10    202.08    369.40    137.20  123%2 <
   6   2  12      9.39     14.50     67.20  123%2 <
   5  -1   0    596.20   1126.00    168.60  123%2 o
   8  -1   2     12.02    -54.40     85.30  123%2 <
   7   0   5    383.30    600.90    125.40  123%2 o
   8   0   6     52.96     66.20     60.10  123%2 <
   7   1   9      3.68     -7.00     52.00  123%2 <
   2   2   9   1039.60   2056.70    178.20  123%2 o
   5   2  11    325.02    277.70     96.90  123%2 <
   4   3  14     64.47     37.40     69.90  123%2 <
  -3  -3 -15     55.38    -38.30     75.80  124%2 <
  -2  -3 -14     37.02     67.00     89.40  124%2 <
  -1  -3 -13   1273.50    814.70    141.40  124%2 o
  -5  -2 -13    116.41     79.30     66.40  124%2 <
   0  -3 -12     54.76    192.60    189.60  124%2 <
   5  -3  -8   1705.30   2114.10    235.00  124%2 o
   0  -2  -8   1053.50   1291.20    264.50  124%2 o
   6  -3  -7    101.31      4.90    143.30  124%2 <
   9  -3  -5      2.97    -41.00     62.70  124%2 <
   5  -2  -4     99.68   -134.00    172.80  124%2 <
   6  -2  -3    134.90    178.10    137.90  124%2 <
   9  -2  -1    102.05    130.60     70.70  124%2 <
   9  -1   3    122.26   -180.30     79.50  124%2 <
  -9   3   3     34.25     13.30     65.50  124%2 <
  -8   3   4   1579.00   1014.90    118.20  124%2 o
  -7   3   5    706.90    628.00    142.60  124%2 o
  -6   3   6    325.47    819.60    186.70  124%2 o
   4   1   7    677.94    585.10    147.50  124%2 o
  -5   3   7   2302.10   2656.80    257.40  124%2 o
  -4   3   8  12362.00  12583.40    407.00  124%2 o
  -8   4   8    295.48    253.70     88.70  124%2 <
  -7   4   9   1257.10    492.40    117.20  124%2 o
   3   2  10    301.79    369.40    137.20  124%2 <
  -6   4  10    383.61    514.90    139.10  124%2 o
   0   3  11   3402.00   3685.60    268.60  124%2 o
   6   2  12      5.23     14.50     67.20  124%2 <
   1   3  12   1294.60    848.80    187.50  124%2 o
  -1   4  14   2370.40   2112.80    194.30  124%2 o
   8  -3  -6     46.32    136.80     69.90  124%2 <
   8  -2  -2    419.81    400.80    101.90  124%2 o
   5  -1   0    724.25   1126.00    168.60  124%2 o
   8  -1   2     13.24    -54.40     85.30  124%2 <
   7   0   5    413.93    600.90    125.40  124%2 o
   8   0   6     51.75     66.20     60.10  124%2 <
   3   1   6    547.29   1030.00    180.60  124%2 o
   6   1   8    168.89    225.90    109.30  124%2 <
   7   1   9      7.79     -7.00     52.00  124%2 <
   2   2   9   1517.10   2056.70    178.20  124%2 o
   5   2  11    437.86    277.70     96.90  124%2 <
   4   3  14     75.50     37.40     69.90  124%2 <
   2   4  16      7.24    179.00     80.80  124%2 <
  -7  -1 -10     16.82     39.40     43.20  124%2 <
  -6  -1  -9    173.53     36.20     59.20  124%2 <
  -5  -1  -8     48.74    280.40    112.60  124%2 <
  -8   1  -3     82.23    152.60     59.00  124%2 <
  -7   1  -2    226.33     35.20     80.80  124%2 <
  -9   2   0     54.81     48.70     47.30  124%2 <
   7  -1   1     75.50    193.60     88.40  124%2 <
   3   3  13    292.31    161.80     92.70  124%2 <
   0  -4 -16   2200.40   1006.40    142.80  125%2 o
   0  -3 -12     68.14    192.60    189.60  125%2 <
   7  -4 -11    728.70    527.40    108.10  125%2 o
   1  -3 -11   1910.90   1385.90    275.10  125%2 o
   5  -3  -8   1850.70   2114.10    235.00  125%2 o
   8  -3  -6     49.63    136.80     69.90  125%2 <
   5  -2  -4    127.40   -134.00    172.80  125%2 <
   8  -2  -2    467.23    400.80    101.90  125%2 o
   8  -1   2     13.85    -54.40     85.30  125%2 <
   7   0   5    444.72    600.90    125.40  125%2 o
   3   1   6    646.51   1030.00    180.60  125%2 o
   6   1   8    191.19    225.90    109.30  125%2 <
  -4   3   8  13639.00  12583.40    407.00  125%2 o
   2   2   9   1601.60   2056.70    178.20  125%2 o
  -7   4   9   1354.30    492.40    117.20  125%2 o
  -6   4  10    461.21    514.90    139.10  125%2 o
   5   2  11    472.67    277.70     96.90  125%2 <
   0   3  11   4231.20   3685.60    268.60  125%2 o
   4   3  14     80.94     37.40     69.90  125%2 <
   2   4  16      7.56    179.00     80.80  125%2 <
  -4  -3 -15    239.66    120.10     70.80  125%2 <
  -5  -2 -12    408.73    427.10     90.80  125%2 o
  -4  -2 -11     60.40    188.30     90.70  125%2 <
  -3  -2 -10    583.97    772.30    155.40  125%2 o
  -7  -1 -10     18.11     39.40     43.20  125%2 <
  -6  -1  -9    205.42     36.20     59.20  125%2 <
  -5  -1  -8     54.16    280.40    112.60  125%2 <
   7  -3  -7   1351.00   1065.00    136.90  125%2 o
  -4  -1  -7   1088.00    912.40    145.70  125%2 o
   7  -2  -3     88.60    154.60    109.90  125%2 <
  -8   1  -3     88.56    152.60     59.00  125%2 <
   9  -2  -2    119.22    202.70     76.50  125%2 <
  -7   1  -2    253.00     35.20     80.80  125%2 <
   4  -1  -1   1926.30   2315.30    219.30  125%2 o
  -6   1  -1    307.37    129.10    129.90  125%2 <
  -5   1   0    487.11    433.50    188.40  125%2 <
  -9   2   0     60.71     48.70     47.30  125%2 <
   7  -1   1     99.64    193.60     88.40  125%2 <
  -8   2   1    504.53    132.90     91.30  125%2 <
   9  -1   2    214.44     34.30     77.60  125%2 <
  -7   2   2    166.65    229.40    113.40  125%2 <
   6   0   4   1757.20   2114.40    188.60  125%2 o
  -9   3   4     23.18     40.00     63.70  125%2 <
  -8   3   5    102.00    -80.60     90.50  125%2 <
   5   1   7    528.18    495.80    142.80  125%2 o
   7   1   8    135.34    144.80     84.70  125%2 <
   1   2   8  15277.00  17972.90    412.80  125%2 o
   4   2  10    687.90    718.40    140.50  125%2 o
   6   2  11    107.68    380.70     96.80  125%2 o
   3   3  13    330.31    161.80     92.70  125%2 <
   5   3  14     63.55     40.80     73.10  125%2 <
   1   4  15    997.43   1026.30    122.80  125%2 o
   1  -4 -15    135.67    271.30    123.90  126%2 <
  -4  -3 -15    282.39    120.10     70.80  126%2 <
  -3  -3 -14     22.61    135.10     80.40  126%2 <
   7  -4 -11    908.09    527.40    108.10  126%2 o
   1  -3 -11   2177.00   1385.90    275.10  126%2 o
  -4  -2 -11     62.05    188.30     90.70  126%2 <
  -3  -2 -10    683.35    772.30    155.40  126%2 o
   7  -3  -7   1493.90   1065.00    136.90  126%2 o
  -4  -1  -7   1423.20    912.40    145.70  126%2 o
  -3  -1  -6   2207.40   1938.10    218.20  126%2 o
   4  -2  -5   5689.20   6128.50    301.80  126%2 o
   7  -2  -3     77.11    154.60    109.90  126%2 <
   9  -2  -2    135.76    202.70     76.50  126%2 <
   6  -1   0   1146.90    899.90    186.70  126%2 o
  -5   1   0    473.27    433.50    188.40  126%2 <
   9  -1   2    220.92     34.30     77.60  126%2 <
  -7   2   2    273.43    229.40    113.40  126%2 <
  -6   2   3    325.14      9.00    160.80  126%2 <
  -9   3   4     34.89     40.00     63.70  126%2 <
   2   1   5   6866.20   4060.60    307.10  126%2 o
  -8   3   5    103.02    -80.60     90.50  126%2 <
  -7   3   6    251.48    439.60    115.00  126%2 o
   5   1   7    603.05    495.80    142.80  126%2 o
   7   1   8    196.52    144.80     84.70  126%2 <
   1   2   8  15007.00  17972.90    412.80  126%2 o
   4   2  10    822.33    718.40    140.50  126%2 o
   6   2  11    176.48    380.70     96.80  126%2 o
  -5   4  11    544.93    200.00    168.40  126%2 <
   2   3  12   1661.90    850.50    151.40  126%2 o
  -2   4  13   1779.80   1321.00    231.40  126%2 o
   5   3  14     97.03     40.80     73.10  126%2 <
   1   4  15   1022.50   1026.30    122.80  126%2 o
  -2  -3 -13     81.69   -110.30    104.40  126%2 <
  -6  -2 -12      8.77     68.40     62.10  126%2 <
  -2  -2  -9   1763.60   1584.10    187.90  126%2 o
  -7  -1  -9      8.09     -1.10     66.90  126%2 <
  -6  -1  -8     17.83     85.40     89.30  126%2 <
  -8   0  -6     56.17    158.30     71.10  126%2 <
  -7   0  -5    829.72    837.30    124.10  126%2 o
   6  -2  -4   1162.10   1196.50    197.00  126%2 o
   8  -2  -3    397.99    506.90    101.60  126%2 o
  -9   1  -3    116.06   -100.60     66.20  126%2 <
  -8   1  -2    290.85    292.60     89.40  126%2 o
   8  -1   1     64.71    131.40     89.70  126%2 <
  -4   1   1   2642.20   1978.40    245.30  126%2 o
  -9   2   1     19.56   -165.30     65.20  126%2 <
   5   0   3  17204.00  18447.80    398.80  126%2 o
  -5   2   4     46.22    149.70    165.40  126%2 <
   4   1   6   1279.10   1914.20    192.30  126%2 o
   6   1   7    454.26    256.80    121.30  126%2 <
   8   1   8    187.21    237.10     88.10  126%2 <
   3   2   9   1055.60   1313.50    161.60  126%2 o
   5   2  10    128.76    247.00    100.50  126%2 <
   7   2  11     92.83    171.90     77.40  126%2 <
   4   3  13     57.85    129.50     82.80  126%2 <
   1  -4 -15     78.60    271.30    123.90  127%2 <
  -2  -3 -13     61.51   -110.30    104.40  127%2 <
   6  -4 -12     73.57      8.40    124.10  127%2 <
  -1  -3 -12    920.91    631.90    177.20  127%2 o
  -6  -2 -12      9.59     68.40     62.10  127%2 <
   4  -3  -9   5971.80   5364.90    350.60  127%2 o
  -2  -2  -9   2015.50   1584.10    187.90  127%2 o
  -7  -1  -9      7.73     -1.10     66.90  127%2 <
   6  -3  -8    272.67    561.90    138.80  127%2 o
  -6  -1  -8     17.20     85.40     89.30  127%2 <
   8  -3  -7    283.37    274.60     97.40  127%2 <
  -8   0  -6     66.72    158.30     71.10  127%2 <
  -2  -1  -5   2684.00   2860.70    321.30  127%2 o
  -7   0  -5    774.63    837.30    124.10  127%2 o
   6  -2  -4    961.24   1196.50    197.00  127%2 o
   8  -2  -3    416.47    506.90    101.60  127%2 o
  -9   1  -3    135.81   -100.60     66.20  127%2 <
   3  -1  -2  13208.00  11670.70    411.50  127%2 o
  -8   1  -2    325.63    292.60     89.40  127%2 o
   8  -1   1     73.41    131.40     89.70  127%2 <
  -4   1   1   3213.50   1978.40    245.30  127%2 o
  -9   2   1     53.46   -165.30     65.20  127%2 <
   5   0   3  16850.00  18447.80    398.80  127%2 o
  -5   2   4     40.64    149.70    165.40  127%2 <
   4   1   6    901.42   1914.20    192.30  127%2 o
  -7   3   6    408.92    439.60    115.00  127%2 o
   6   1   7    516.92    256.80    121.30  127%2 <
  -6   3   7    143.75    169.10    148.80  127%2 <
   8   1   8    182.16    237.10     88.10  127%2 <
   3   2   9   1256.20   1313.50    161.60  127%2 o
  -8   4   9     25.43     13.40     72.70  127%2 <
   5   2  10    175.85    247.00    100.50  127%2 <
   7   2  11     90.69    171.90     77.40  127%2 <
  -5   4  11    276.37    200.00    168.40  127%2 <
   2   3  12   1228.00    850.50    151.40  127%2 o
   4   3  13     70.42    129.50     82.80  127%2 <
   0   4  14    408.75    290.50    150.00  127%2 <
  -1  -4 -16     65.56    100.60     77.60  127%2 <
  -4  -3 -14      8.27   -114.80     76.20  127%2 <
  -5  -2 -11    413.80    192.10     90.70  127%2 <
  -5  -1  -7     36.42     98.80    121.40  127%2 <
  -6   0  -4   1137.60   1394.20    171.20  127%2 o
   9  -2  -3     75.78    103.60     77.90  127%2 <
   5  -1  -1   4514.00   5173.70    252.20  127%2 o
  -7   1  -1    877.93    679.00    133.40  127%2 o
   7  -1   0    545.27    174.20    124.50  127%2 <
   9  -1   1    146.43     49.30     87.20  127%2 <
  -8   2   2    378.07    469.00     94.70  127%2 o
   8   0   4    840.77    351.50    117.20  127%2 <
  -9   3   5      9.86    111.10     72.40  127%2 <
   7   1   7    115.83     97.40     98.60  127%2 <
   5   3  13     65.05     13.30     94.80  127%2 <
   2   4  15    308.02    302.80    101.50  127%2 <
  -4  -2 -10   1145.90    762.40    129.90  127%2 o
   6   2  10    114.71    202.70     93.10  127%2 <
  -1  -4 -16     24.52    100.60     77.60  128%2 <
  -4  -3 -14      2.31   -114.80     76.20  128%2 <
   6  -4 -12    100.75      8.40    124.10  128%2 <
  -1  -3 -12    745.15    631.90    177.20  128%2 o
  -5  -2 -11    103.77    192.10     90.70  128%2 <
   6  -3  -8    195.84    561.90    138.80  128%2 o
  -1  -2  -8  21805.00  19657.10    435.90  128%2 o
   8  -3  -7    208.82    274.60     97.40  128%2 <
  -5  -1  -7     22.98     98.80    121.40  128%2 <
  -2  -1  -5   2604.70   2860.70    321.30  128%2 o
  -6   0  -4   1849.90   1394.20    171.20  128%2 o
   9  -2  -3    119.07    103.60     77.90  128%2 <
   3  -1  -2  11502.00  11670.70    411.50  128%2 o
   5  -1  -1   4804.50   5173.70    252.20  128%2 o
  -7   1  -1    135.38    679.00    133.40  128%2 o
   7  -1   0    758.37    174.20    124.50  128%2 <
   9  -1   1    106.42     49.30     87.20  128%2 <
  -3   1   2  18149.00  16793.30    492.30  128%2 o
  -8   2   2    332.31    469.00     94.70  128%2 o
   8   0   4    697.21    351.50    117.20  128%2 <
  -9   3   5      8.45    111.10     72.40  128%2 <
   7   1   7    107.77     97.40     98.60  128%2 <
  -6   3   7    112.60    169.10    148.80  128%2 <
  -7   4  10    167.37    175.40     96.20  128%2 <
   1   3  11    600.57   2013.90    221.60  128%2 o
   5   3  13    100.89     13.30     94.80  128%2 <
   0   4  14    236.98    290.50    150.00  128%2 <
   2   4  15    223.20    302.80    101.50  128%2 <
  -3  -3 -13     53.13    116.60     96.80  128%2 <
  -6  -2 -11    177.72    247.00     88.60  128%2 <
  -4  -2 -10   1108.40    762.40    129.90  128%2 o
  -7  -1  -8    125.33     95.80     73.70  128%2 <
  -4  -1  -6    896.79   1329.10    161.70  128%2 o
   5  -2  -5   8346.80   7005.40    288.00  128%2 o
   7  -2  -4   2973.90   3800.70    201.60  128%2 o
  -5   0  -3  15684.00  13862.00    351.10  128%2 o
  -9   1  -2     21.58    -48.70     67.90  128%2 <
  -8   1  -1    230.53    427.20    112.90  128%2 o
   8  -1   0     95.14    131.30    101.60  128%2 <
  -6   1   0   2978.00   3484.10    208.40  128%2 o
   4   0   2  24584.00  28092.00    482.30  128%2 o
   7   0   3   4544.40   4029.90    244.90  128%2 o
  -7   2   3    322.99    602.00    131.10  128%2 o
   3   1   5  28100.00  29858.00    506.90  128%2 o
   5   1   6    811.08    437.10    156.70  128%2 <
  -8   3   6     46.84    -20.40     80.60  128%2 <
   8   1   7    215.08     67.00     86.00  128%2 <
   2   2   8   6691.30   6874.60    308.50  128%2 o
   4   2   9    566.20   1045.00    164.70  128%2 o
   6   2  10    128.97    202.70     93.10  128%2 <
   7   2  10    159.24    -65.10     81.50  128%2 <
   3   3  12    124.59    172.00    105.30  128%2 <
  -1  -4 -16     36.43    100.60     77.60  129%2 <
   0  -4 -15   2844.20   1244.30    150.40  129%2 o
  -4  -3 -14      6.02   -114.80     76.20  129%2 <
  -3  -3 -13     64.90    116.60     96.80  129%2 <
  -1  -3 -12   1068.50    631.90    177.20  129%2 o
  -6  -2 -11    160.05    247.00     88.60  129%2 <
  -4  -2 -10   1577.60    762.40    129.90  129%2 o
  -3  -2  -9    963.54    519.90    179.40  129%2 <
   7  -3  -8    270.36    270.90    111.50  129%2 <
  -1  -2  -8  18817.00  19657.10    435.90  129%2 o
  -7  -1  -8     32.98     95.80     73.70  129%2 <
  -4  -1  -6   2396.50   1329.10    161.70  129%2 o
   5  -2  -5   6519.40   7005.40    288.00  129%2 o
   7  -2  -4   3294.10   3800.70    201.60  129%2 o
  -5   0  -3  15541.00  13862.00    351.10  129%2 o
  -9   1  -2     20.79    -48.70     67.90  129%2 <
   6  -1  -1    759.18    328.70    187.90  129%2 <
  -8   1  -1    145.13    427.20    112.90  129%2 o
   8  -1   0     89.81    131.30    101.60  129%2 <
  -6   1   0   2056.50   3484.10    208.40  129%2 o
   4   0   2  26550.00  28092.00    482.30  129%2 o
  -3   1   2  18789.00  16793.30    492.30  129%2 o
  -9   2   2     60.63    197.70     82.80  129%2 <
   7   0   3   4470.10   4029.90    244.90  129%2 o
  -7   2   3   1438.10    602.00    131.10  129%2 o
   1   1   4  24590.00  35430.10    613.00  129%2 o
   3   1   5  29788.00  29858.00    506.90  129%2 o
  -4   2   5   2454.90   4268.80    288.20  129%2 o
   5   1   6   1366.40    437.10    156.70  129%2 <
  -8   3   6     47.29    -20.40     80.60  129%2 <
   8   1   7    282.12     67.00     86.00  129%2 <
   2   2   8   7837.20   6874.60    308.50  129%2 o
  -5   3   8   3946.30   2344.90    238.00  129%2 o
   4   2   9    251.56   1045.00    164.70  129%2 o
   7   2  10    116.18    -65.10     81.50  129%2 <
  -1   3  10   7231.50   9107.80    367.30  129%2 o
   1   3  11   3925.70   2013.90    221.60  129%2 o
   3   3  12    153.25    172.00    105.30  129%2 <
   0   4  14   1366.60    290.50    150.00  129%2 <
   2   4  15    313.50    302.80    101.50  129%2 <
   3   4  15     96.76     32.20     86.80  129%2 <
  -2  -4 -16      7.62     15.70     74.80  129%2 <
  -5  -3 -14     27.79    -66.20     63.70  129%2 <
  -5  -2 -10    268.76    612.30    101.70  129%2 o
  -6  -1  -7    243.98    358.00    116.50  129%2 o
   8  -2  -4    210.03     49.50     86.50  129%2 <
   9  -2  -4    255.27     37.20    103.00  129%2 <
  -4   0  -2  24292.00  22179.00    456.40  129%2 o
   9  -1   0     17.06    133.10     75.00  129%2 <
  -7   1   0    172.90    151.50    142.30  129%2 <
  -5   1   1   3620.40   5503.50    256.60  129%2 o
  -8   2   3    445.89    478.80    113.10  129%2 o
  -6   2   4   4255.40   1833.40    206.60  129%2 o
   6   1   6     78.26    -21.50    127.20  129%2 <
  -7   3   7   1083.40    377.20    123.50  129%2 o
   5   2   9    385.07    430.90    120.40  129%2 o
   4   3  12     51.38    147.70     89.10  129%2 <
  -2  -4 -16     16.20     15.70     74.80  130%2 <
   0  -4 -15   1938.80   1244.30    150.40  130%2 o
   2  -4 -14    903.16    234.10    179.70  130%2 <
  -5  -3 -14     30.79    -66.20     63.70  130%2 <
  -2  -3 -12    637.69    638.10    150.00  130%2 o
   0  -3 -11   1274.10   1323.80    229.90  130%2 o
  -6  -2 -11    193.64    247.00     88.60  130%2 <
  -5  -2 -10    508.88    612.30    101.70  130%2 o
  -3  -2  -9   1329.70    519.90    179.40  130%2 <
   7  -3  -8    283.55    270.90    111.50  130%2 <
   8  -3  -8    162.17    113.30     89.90  130%2 <
  -6  -1  -7    458.55    358.00    116.50  130%2 o
   5  -2  -5   7596.70   7005.40    288.00  130%2 o
   6  -2  -5    352.62    445.10    196.30  130%2 <
  -3  -1  -5  30380.00  34220.80    535.50  130%2 o
   8  -2  -4    118.82     49.50     86.50  130%2 <
   9  -2  -4    227.02     37.20    103.00  130%2 <
  -1  -1  -4  23982.00  34516.60    592.30  130%2 o
   4  -1  -2   6696.40   9782.90    347.40  130%2 o
  -4   0  -2  24004.00  22179.00    456.40  130%2 o
   6  -1  -1    506.31    328.70    187.90  130%2 <
  -8   1  -1   1071.10    427.20    112.90  130%2 o
   9  -1   0     30.66    133.10     75.00  130%2 <
  -7   1   0     84.45    151.50    142.30  130%2 <
  -5   1   1   6786.10   5503.50    256.60  130%2 o
  -3   1   2  27863.00  16793.30    492.30  130%2 o
  -9   2   2    179.46    197.70     82.80  130%2 <
   7   0   3   3108.80   4029.90    244.90  130%2 o
  -8   2   3    712.25    478.80    113.10  130%2 o
  -6   2   4    894.77   1833.40    206.60  130%2 o
  -4   2   5   3909.90   4268.80    288.20  130%2 o
   6   1   6    101.40    -21.50    127.20  130%2 <
  -8   3   6     52.84    -20.40     80.60  130%2 <
   0   2   7  38753.00  43254.20    651.50  130%2 o
  -7   3   7    626.16    377.20    123.50  130%2 o
  -5   3   8   3021.30   2344.90    238.00  130%2 o
   5   2   9    320.49    430.90    120.40  130%2 o
   7   2  10     52.39    -65.10     81.50  130%2 <
   2   3  11   1711.80   1924.30    187.60  130%2 o
   4   3  12     89.64    147.70     89.10  130%2 <
   1   4  14    700.83    117.10    119.30  130%2 <
   3   4  15     80.55     32.20     86.80  130%2 <
  -4  -3 -13   1710.90    440.50     98.30  130%2 o
  -7  -2 -11    145.53    -20.20     50.10  130%2 <
  -7  -1  -7    106.03    243.50     90.80  130%2 <
  -5  -1  -6    753.60    970.80    151.70  130%2 o
  -8   0  -4    311.50    233.10    101.00  130%2 <
   7  -1  -1   2043.10   1501.50    165.70  130%2 o
  -9   1  -1    215.23    113.60     76.70  130%2 <
   9   0   3    238.02    211.90     81.10  130%2 <
   4   1   5    542.66    228.90    158.90  130%2 <
   7   1   6    611.29    654.10    129.50  130%2 o
   3   2   8    803.37    525.20    146.20  130%2 o
   6   2   9    826.86   1531.20    137.00  130%2 o
   5   3  12    238.23    156.70     86.00  130%2 <
  -1  -4 -15    521.14    165.10    103.60  131%2 <
  -4  -3 -13   1116.70    440.50     98.30  131%2 o
  -7  -2 -11    125.45    -20.20     50.10  131%2 <
  -6  -2 -10    579.51     94.60     81.00  131%2 <
   5  -3  -9   1547.50    865.40    207.80  131%2 o
  -4  -2  -9    146.76    105.50    130.00  131%2 <
   8  -3  -8     93.22    113.30     89.90  131%2 <
  -2  -2  -8   4880.90   4771.10    248.80  131%2 o
  -7  -1  -7    154.92    243.50     90.80  131%2 <
  -5  -1  -6   1093.60    970.80    151.70  131%2 o
   6  -2  -5   1625.90    445.10    196.30  131%2 <
  -3  -1  -5  32400.00  34220.80    535.50  131%2 o
   9  -2  -4    714.78     37.20    103.00  131%2 <
  -1  -1  -4  30302.00  34516.60    592.30  131%2 o
  -8   0  -4    582.45    233.10    101.00  131%2 <
   4  -1  -2   7856.20   9782.90    347.40  131%2 o
  -4   0  -2  18307.00  22179.00    456.40  131%2 o
   7  -1  -1   2241.40   1501.50    165.70  131%2 o
   8  -1  -1     77.76    298.10     93.50  131%2 o
  -9   1  -1     97.49    113.60     76.70  131%2 <
  -7   1   0    512.07    151.50    142.30  131%2 <
   3   0   1  22810.00  19652.30    464.90  131%2 o
  -5   1   1   5174.50   5503.50    256.60  131%2 o
   6   0   2  10112.00   9842.00    317.50  131%2 o
   9   0   3    751.55    211.90     81.10  131%2 <
  -8   2   3    544.03    478.80    113.10  131%2 o
  -6   2   4   2805.10   1833.40    206.60  131%2 o
   4   1   5    346.55    228.90    158.90  131%2 <
   7   1   6    705.40    654.10    129.50  131%2 o
   8   1   6     15.88    279.10     93.10  131%2 <
  -7   3   7    520.56    377.20    123.50  131%2 o
   3   2   8    418.01    525.20    146.20  131%2 o
  -5   3   8   1972.60   2344.90    238.00  131%2 o
   6   2   9   1345.20   1531.20    137.00  131%2 o
   7   2   9    116.67    -59.10     82.30  131%2 <
   2   3  11   1356.00   1924.30    187.60  131%2 o
   5   3  12    422.61    156.70     86.00  131%2 <
   6   3  12    282.09     45.70     77.30  131%2 <
  -1   4  13    393.44    528.70    180.00  131%2 <
   2   4  14   1147.80    496.50    116.90  131%2 o
  -5  -3 -13      8.99     23.50     70.10  131%2 <
  -3  -3 -12    186.23    245.60     92.90  131%2 <
  -8  -1  -7    207.20     93.00     78.30  131%2 <
  -6  -1  -6    126.45    117.50    117.50  131%2 <
  -7   0  -3   4959.60   2767.70    194.00  131%2 o
   9  -1  -1    104.82      5.10     77.20  131%2 <
  -8   1   0    525.19    573.60    109.50  131%2 o
  -6   1   1    514.80    534.50    141.30  131%2 o
   5   1   5    424.86    883.60    170.10  131%2 o
   4   2   8   1581.10    878.20    158.80  131%2 o
   3   3  11    275.41    325.90    124.00  131%2 <
  -1  -4 -15    884.05    165.10    103.60  132%2 <
   1  -4 -14   2214.90   1731.10    188.20  132%2 o
  -5  -3 -13     81.06     23.50     70.10  132%2 <
  -3  -3 -12     30.63    245.60     92.90  132%2 <
  -1  -3 -11   3795.90   1374.50    185.50  132%2 o
  -7  -2 -10     10.85    -68.70     72.40  132%2 <
   6  -3  -9   1613.00    826.10    147.00  132%2 o
  -5  -2  -9    409.80    324.70    141.50  132%2 <
   0  -2  -7  44145.00  44279.30    637.50  132%2 o
  -8  -1  -7    354.03     93.00     78.30  132%2 <
  -6  -1  -6     82.54    117.50    117.50  132%2 <
   7  -2  -5    189.11    175.60    126.20  132%2 <
   8  -2  -5    251.35     74.80    112.50  132%2 <
  -4  -1  -5    205.81    657.10    190.50  132%2 o
  -7   0  -3   2665.20   2767.70    194.00  132%2 o
   5  -1  -2    569.57   1202.50    196.20  132%2 o
   9  -1  -1    200.96      5.10     77.20  132%2 <
  -3   0  -1  14444.00  20850.40    465.00  132%2 o
  -8   1   0   1317.60    573.60    109.50  132%2 o
   3   0   1  17436.00  19652.30    464.90  132%2 o
  -6   1   1    688.11    534.50    141.30  132%2 o
   8   0   2    585.04    253.40    122.70  132%2 <
  -4   1   2  13310.00  12140.40    357.00  132%2 o
  -9   2   3    333.62    190.50     77.90  132%2 <
   2   1   4  34463.00  44979.90    635.20  132%2 o
  -7   2   4   3924.90   3354.20    195.60  132%2 o
   5   1   5    342.51    883.60    170.10  132%2 o
   6   1   5    187.16    541.30    141.10  132%2 o
  -5   2   5   5056.00   5269.90    283.70  132%2 o
   1   2   7   4179.60   4379.40    310.00  132%2 o
  -8   3   7     74.95    193.90     82.70  132%2 <
   4   2   8    763.23    878.20    158.80  132%2 o
  -6   3   8    724.65    509.10    146.10  132%2 o
   0   3  10   4354.30   3664.80    263.50  132%2 o
   3   3  11    436.13    325.90    124.00  132%2 <
  -1   4  13    817.99    528.70    180.00  132%2 <
   2   4  14    747.47    496.50    116.90  132%2 o
   3   4  14    985.34    326.50    100.60  132%2 o
  -1   5  16    486.42    442.10    119.90  132%2 o
  -2  -4 -15    219.86    320.80     83.10  132%2 o
  -4  -3 -12    152.42    243.90     79.20  132%2 o
  -6  -2  -9   1000.80    987.80    131.00  132%2 o
  -3  -2  -8   2982.50   1307.40    158.20  132%2 o
  -7  -1  -6    548.77    769.40    116.00  132%2 o
   9  -2  -5    320.92     72.10     76.20  132%2 <
   6  -1  -2   4059.90   3564.80    224.50  132%2 o
  -6   0  -2   9787.00   8333.50    289.20  132%2 o
  -9   1   0     22.72     61.20     69.00  132%2 <
  -7   1   1   2623.40   2288.20    173.40  132%2 o
  -8   2   4    109.38    417.60    103.30  132%2 o
   7   1   5    422.33    266.70    112.40  132%2 <
   8   1   5     32.93    -11.00     85.70  132%2 <
   5   2   8   6453.60   4920.30    241.50  132%2 o
   6   2   8      9.45    -97.60     99.60  132%2 <
   4   3  11    621.52    676.90    117.00  132%2 o
   5   3  11    234.15     48.90     88.80  132%2 <
   4   4  14     68.82    133.00     75.40  132%2 <
  -7   4  11    234.87    421.70    100.90  133%2 o
   0   4  13   2729.20   1761.60    186.60  133%2 o
  -1   5  16    507.84    442.10    119.90  133%2 o
   0   5  16    134.32    138.40     94.20  133%2 <
  -2  -4 -15    215.97    320.80     83.10  133%2 o
   0  -4 -14   1244.90    482.00    126.80  133%2 o
  -4  -3 -12    100.02    243.90     79.20  133%2 o
  -2  -3 -11    521.72    238.10    195.00  133%2 <
   6  -3  -9    311.69    826.10    147.00  133%2 o
   7  -3  -9    952.85    405.20    107.60  133%2 o
   8  -3  -9     68.66     23.20     82.90  133%2 <
  -6  -2  -9    972.53    987.80    131.00  133%2 o
  -3  -2  -8   1783.90   1307.40    158.20  133%2 o
   4  -2  -6   1619.10   1751.90    252.00  133%2 o
  -7  -1  -6    651.77    769.40    116.00  133%2 o
   9  -2  -5    385.34     72.10     76.20  133%2 <
  -5  -1  -5   1418.10   1168.30    183.30  133%2 o
  -2  -1  -4  37727.00  44703.80    628.60  133%2 o
   6  -1  -2   4371.40   3564.80    224.50  133%2 o
   7  -1  -2   1584.10   2251.00    210.00  133%2 o
  -6   0  -2   9019.00   8333.50    289.20  133%2 o
  -3   0  -1  21457.00  20850.40    465.00  133%2 o
  -9   1   0     19.89     61.20     69.00  133%2 <
  -7   1   1   3615.60   2288.20    173.40  133%2 o
   3   1   4  13328.00  14724.10    407.70  133%2 o
  -8   2   4    136.19    417.60    103.30  133%2 o
   7   1   5    336.49    266.70    112.40  133%2 <
   8   1   5     47.52    -11.00     85.70  133%2 <
   6   2   8     22.32    -97.60     99.60  133%2 <
   7   2   8      4.32     40.80     84.00  133%2 <
  -6   3   8    917.08    509.10    146.10  133%2 o
   1   3  10   1814.60    748.20    206.80  133%2 o
   5   3  11    211.64     48.90     88.80  133%2 <
   4   4  14     87.30    133.00     75.40  133%2 <
  -3  -4 -15     84.85    -57.90     65.40  133%2 <
  -5  -3 -12     36.28     26.70     69.80  133%2 <
  -7  -2  -9     25.07     51.20     75.90  133%2 <
  -4  -2  -8   1080.10    766.30    156.70  133%2 o
  -8  -1  -6     16.56    132.70     74.40  133%2 <
  -9   0  -3    163.01    -47.30     71.10  133%2 <
   8  -1  -2      5.22     -9.30     86.30  133%2 <
   9  -1  -2     53.01    156.80     73.60  133%2 <
   5   0   1    106.18    423.40    163.00  133%2 <
  -8   1   1    104.77    131.00     88.70  133%2 <
  -5   1   2    669.91    518.20    158.00  133%2 o
   4   1   4     32.83    457.50    201.40  133%2 <
  -9   2   4    300.67    129.10     76.00  133%2 <
  -6   2   5     27.90   -110.30    162.30  133%2 <
   2   2   7   2523.00   3046.10    245.40  133%2 o
   8   2   8      8.92     -1.90     75.70  133%2 <
   6   3  11    115.23    182.50     75.90  133%2 <
  -6  -1  -5    195.44    157.30     96.00  133%2 <
  -7   4  11    222.22    421.70    100.90  134%2 o
   0   4  13   2688.70   1761.60    186.60  134%2 o
   1   4  13   2370.50   1996.50    172.50  134%2 o
   2   4  13    315.59    299.50    114.00  134%2 <
   0   5  16    127.42    138.40     94.20  134%2 <
   1   5  16     50.89   -102.80     95.60  134%2 <
  -1  -4 -14   1645.30   1004.20    141.30  134%2 o
   5  -4 -13    275.69    542.20    177.10  134%2 o
   6  -4 -13    327.24    192.70    131.40  134%2 <
  -1  -2  -7   5717.20   5026.00    310.50  134%2 o
   5  -2  -6   3975.10   3871.60    266.10  134%2 o
   6  -2  -6   2555.20   2330.10    214.90  134%2 o
   7  -2  -6    123.78    103.80    114.50  134%2 <
   2  -1  -3  48586.00  56101.00    800.80  134%2 o
  -7   2   5     87.60    567.60    125.60  134%2 o
  -3  -4 -15     85.61    -57.90     65.40  134%2 <
   0  -4 -14   1224.10    482.00    126.80  134%2 o
  -5  -3 -12     29.68     26.70     69.80  134%2 <
  -2  -3 -11    510.81    238.10    195.00  134%2 <
   8  -3  -9     65.05     23.20     82.90  134%2 <
  -7  -2  -9     19.78     51.20     75.90  134%2 <
  -4  -2  -8   1079.50    766.30    156.70  134%2 o
   4  -2  -6   1642.60   1751.90    252.00  134%2 o
  -8  -1  -6     15.82    132.70     74.40  134%2 <
  -9   0  -3    152.55    -47.30     71.10  134%2 <
   8  -1  -2      4.30     -9.30     86.30  134%2 <
   9  -1  -2     57.15    156.80     73.60  134%2 <
   5   0   1     98.67    423.40    163.00  134%2 <
  -8   1   1    101.55    131.00     88.70  134%2 <
  -5   1   2    652.27    518.20    158.00  134%2 o
   3   1   4  12967.00  14724.10    407.70  134%2 o
   4   1   4     37.06    457.50    201.40  134%2 <
  -9   2   4    303.19    129.10     76.00  134%2 <
  -6   2   5     30.71   -110.30    162.30  134%2 <
   2   2   7   2434.90   3046.10    245.40  134%2 o
   8   2   8      7.84     -1.90     75.70  134%2 <
  -7   3   8    131.49    203.80    101.40  134%2 <
   1   3  10   1817.90    748.20    206.80  134%2 o
   2   3  10   4371.90   3171.40    234.10  134%2 o
  -6  -3 -12     78.65     57.20     69.10  134%2 <
  -3  -3 -11   1810.30    843.50    130.60  134%2 o
  -5  -2  -8   8988.90   6587.90    253.40  134%2 o
  -7  -1  -5    357.65    110.50    103.20  134%2 <
  -6  -1  -5    182.28    157.30     96.00  134%2 <
  -3  -1  -4   9848.10  13320.60    357.40  134%2 o
  -8   0  -2     16.51     39.10     85.40  134%2 <
   7   0   1    221.58    309.50    128.10  134%2 <
   9   0   1    336.63    -75.70     85.60  134%2 <
  -9   1   1     40.92     13.60     67.70  134%2 <
  -6   1   2   4153.50   4723.20    224.90  134%2 o
   5   1   4    504.02    518.00    146.20  134%2 o
   6   1   4   2065.60   2081.30    182.40  134%2 o
   7   1   4    653.23    423.00    113.80  134%2 o
   8   1   4    156.81    143.80     96.30  134%2 <
   3   2   7    139.08    433.30    152.30  134%2 <
   4   2   7   7345.80   5333.10    248.30  134%2 o
   5   2   7    171.89    185.20    136.80  134%2 <
   3   3  10    250.64    376.60    132.60  134%2 <
   7   3  10     84.01    -18.20     74.30  135%2 <
   2   4  13    256.88    299.50    114.00  135%2 <
   3   4  13     56.04    111.00    104.10  135%2 <
   4   4  13    391.40    224.30     80.80  135%2 <
   5   4  13     42.20     -6.60     71.10  135%2 <
   1   5  16     13.77   -102.80     95.60  135%2 <
  -3  -4 -14    101.15    -55.80     92.50  135%2 <
  -2  -4 -14    622.93    516.10    131.60  135%2 o
  -1  -4 -14   1497.90   1004.20    141.30  135%2 o
  -6  -3 -11    161.59    -38.50     73.20  135%2 <
  -5  -3 -11    114.40      1.20     79.70  135%2 <
   1  -3 -10   5701.00   6045.50    360.30  135%2 o
  -7  -2  -8     22.18    120.40     70.00  135%2 <
  -3  -2  -7     85.71    351.90    178.50  135%2 <
  -2  -2  -7   3262.80   3610.90    272.20  135%2 o
   7  -2  -6     76.90    103.80    114.50  135%2 <
   8  -2  -6     76.16    222.20    101.20  135%2 <
   9  -2  -6     16.79    -25.20     85.40  135%2 <
  -8  -1  -5     33.70    -33.20     78.20  135%2 <
  -5  -1  -4    309.95    -78.70    136.60  135%2 <
  -4  -1  -4    286.96   -176.50    163.10  135%2 <
   3  -1  -3  31005.00  35784.00    583.50  135%2 o
   4  -1  -3    870.92   1644.60    246.50  135%2 o
   5  -1  -3   1177.60   1099.60    218.10  135%2 o
   6  -1  -3   7218.70   6262.80    293.70  135%2 o
   7  -1  -3   1751.50   1793.50    186.30  135%2 o
   8  -1  -3     29.38    163.50     88.30  135%2 <
   9  -1  -3     13.22   -126.90     78.40  135%2 <
  -7   0  -1    330.76     19.00    116.50  135%2 <
  -8   1   2     26.07     88.70     77.70  135%2 <
  -7   1   2   2350.30   1904.20    172.40  135%2 o
  -9   2   5     39.58     62.30     68.80  135%2 <
  -8   2   5    257.34    122.60     93.90  135%2 <
  -7   2   5    539.15    567.60    125.60  135%2 o
  -3   2   6  12221.00  12144.00    448.50  135%2 o
  -8   3   8     23.42     29.30     78.20  135%2 <
  -4   3   9   5465.10   3868.20    330.20  135%2 o
   4   3  10    321.98    107.50    116.80  135%2 <
   5   3  10    880.49    557.60    121.50  135%2 o
   6   3  10    472.47    404.20     97.20  135%2 o
  -4  -3 -11    191.65    137.20     94.80  135%2 <
  -7  -1  -5    205.74    110.50    103.20  135%2 <
  -5   0  -1    116.10    429.50    154.30  135%2 <
  -6   1   2   3793.60   4723.20    224.90  135%2 o
   7   1   4    152.18    423.00    113.80  135%2 o
   8   1   4    249.69    143.80     96.30  135%2 <
   4   2   7   6784.00   5333.10    248.30  135%2 o
   5   2   7    104.73    185.20    136.80  135%2 <
   3   3  10    223.12    376.60    132.60  135%2 <
  -6  -2  -8     11.40    -10.80     70.60  135%2 <
   6   2   7    396.84    303.60     97.50  135%2 o
   7   2   7    101.97    -26.10     70.10  135%2 <
   8   2   7    120.97    -10.00     60.70  135%2 <
   7   3  10     15.18    -18.20     74.30  136%2 <
  -5   4  12   1717.10    938.90    190.90  136%2 o
   3   4  13     58.30    111.00    104.10  136%2 <
   4   4  13    382.06    224.30     80.80  136%2 <
   5   4  13     26.43     -6.60     71.10  136%2 <
  -4  -4 -14    116.22     -8.60     64.80  136%2 <
  -3  -4 -14     97.01    -55.80     92.50  136%2 <
  -2  -4 -14    355.44    516.10    131.60  136%2 o
  -6  -3 -11    176.24    -38.50     73.20  136%2 <
  -5  -3 -11    188.36      1.20     79.70  136%2 <
   0  -3 -10   3165.40   2336.40    258.30  136%2 o
   1  -3 -10   6935.40   6045.50    360.30  136%2 o
   7  -3 -10     26.20    -27.70    101.10  136%2 <
  -7  -2  -8     19.95    120.40     70.00  136%2 <
  -4  -2  -7   6076.40   5056.00    236.00  136%2 o
  -3  -2  -7     73.81    351.90    178.50  136%2 <
  -2  -2  -7   2850.50   3610.90    272.20  136%2 o
  -8  -1  -5     21.35    -33.20     78.20  136%2 <
  -7  -1  -4    688.78    243.70    109.60  136%2 <
  -6  -1  -4   1512.40   1781.90    169.20  136%2 o
  -5  -1  -4    119.62    -78.70    136.60  136%2 <
  -4  -1  -4    152.20   -176.50    163.10  136%2 <
   4  -1  -3    606.24   1644.60    246.50  136%2 o
   5  -1  -3   1573.30   1099.60    218.10  136%2 o
   6  -1  -3   6808.90   6262.80    293.70  136%2 o
   7  -1  -3   1404.20   1793.50    186.30  136%2 o
   8  -1  -3     24.33    163.50     88.30  136%2 <
   9  -1  -3     10.86   -126.90     78.40  136%2 <
  -7   0  -1    303.88     19.00    116.50  136%2 <
   6   0   0   6485.30   8116.10    274.30  136%2 o
   8   0   0     24.02    244.90     92.00  136%2 <
  -9   1   2     13.04    -37.20     68.80  136%2 <
  -8   1   2     28.10     88.70     77.70  136%2 <
  -7   1   2   2202.10   1904.20    172.40  136%2 o
   8   1   3     97.04    206.10     94.60  136%2 <
   9   1   3    297.75     63.10     90.90  136%2 <
  -9   2   5    127.54     62.30     68.80  136%2 <
  -8   2   5    492.91    122.60     93.90  136%2 <
  -4   2   6   2226.80   3815.40    279.80  136%2 o
  -5   3   9    223.99    908.40    195.70  136%2 o
   4   3  10    471.13    107.50    116.80  136%2 <
   5   3  10   1011.40    557.60    121.50  136%2 o
   6   3  10    490.61    404.20     97.20  136%2 o
  -4  -4 -14    110.93     -8.60     64.80  137%2 <
  -3  -4 -14    119.89    -55.80     92.50  137%2 <
  -6  -3 -11    172.09    -38.50     73.20  137%2 <
  -5  -3 -11    119.13      1.20     79.70  137%2 <
  -2  -3 -10   3572.30   3282.20    225.20  137%2 o
  -1  -3 -10    632.75    -13.90    173.40  137%2 <
   0  -3 -10   3379.20   2336.40    258.30  137%2 o
   6  -3 -10     81.69    180.10    129.00  137%2 <
   7  -3 -10    208.12    -27.70    101.10  137%2 <
  -5  -2  -7    496.83    242.80    159.50  137%2 <
  -4  -2  -7   6463.00   5056.00    236.00  137%2 o
  -3  -2  -7     90.56    351.90    178.50  137%2 <
  -7  -1  -4    580.65    243.70    109.60  137%2 <
  -6  -1  -4   1493.70   1781.90    169.20  137%2 o
  -5  -1  -4    315.56    -78.70    136.60  137%2 <
   4  -1  -3    835.83   1644.60    246.50  137%2 o
   5  -1  -3   1349.70   1099.60    218.10  137%2 o
   6  -1  -3   7191.80   6262.80    293.70  137%2 o
   7  -1  -3   1690.90   1793.50    186.30  137%2 o
   8  -1  -3     27.47    163.50     88.30  137%2 <
   9  -1  -3     13.37   -126.90     78.40  137%2 <
  -7   0  -1    331.24     19.00    116.50  137%2 <
   4   0   0   2080.50   3883.70    291.10  137%2 o
   6   0   0   7151.20   8116.10    274.30  137%2 o
   8   0   0     25.56    244.90     92.00  137%2 <
  -9   1   2     53.70    -37.20     68.80  137%2 <
  -8   1   2     22.89     88.70     77.70  137%2 <
  -3   1   3  27695.00  29800.00    581.20  137%2 o
   8   1   3     99.89    206.10     94.60  137%2 <
   9   1   3    228.71     63.10     90.90  137%2 <
  -9   2   5     43.65     62.30     68.80  137%2 <
  -4   2   6   2760.20   3815.40    279.80  137%2 o
  -5   3   9    296.01    908.40    195.70  137%2 o
  -5   4  12   1852.90    938.90    190.90  137%2 o
  -6  -2  -7    500.39    264.10    117.10  137%2 <
  -8  -1  -4    129.48     84.30     90.20  137%2 <
  -9   0  -1    223.64     12.70     74.40  137%2 <
   6   1   3    930.53    907.30    167.40  137%2 o
   7   1   3   1687.30   1187.00    168.10  137%2 o
   8   2   6     61.89    -79.20     86.30  137%2 <
  -4  -3 -10    592.75    374.70    137.60  138%2 <
  -3  -3 -10    562.30    135.20    125.10  138%2 <
  -2  -3 -10   3207.80   3282.20    225.20  138%2 o
   4  -3 -10    648.46    674.20    240.70  138%2 <
   5  -3 -10   1169.40    864.10    191.80  138%2 o
  -7  -2  -7     38.78     75.80     81.80  138%2 <
  -6  -2  -7    417.89    264.10    117.10  138%2 <
   7  -2  -7     50.70    -33.10    105.00  138%2 <
   8  -2  -7     50.02     15.10     89.90  138%2 <
  -8  -1  -4    294.37     84.30     90.20  138%2 <
  -9   0  -1    246.04     12.70     74.40  138%2 <
  -2   0   0  17652.00  11913.30    568.80  138%2 o
   2   0   0  16007.00  16445.20    594.60  138%2 o
   4   0   0   2165.10   3883.70    291.10  138%2 o
  -5   1   3   1601.70   2001.80    212.80  138%2 o
  -4   1   3    547.04   1608.70    257.00  138%2 o
   3   1   3  16685.00  19724.40    463.00  138%2 o
   4   1   3    322.93    958.00    230.40  138%2 o
   5   1   3   6432.40   5758.20    258.60  138%2 o
   6   1   3    915.73    907.30    167.40  138%2 o
   7   1   3   1315.10   1187.00    168.10  138%2 o
  -7   2   6    936.97   1397.70    151.40  138%2 o
  -6   2   6   2204.60   1643.50    195.80  138%2 o
  -5   2   6   1719.60   1935.90    221.70  138%2 o
   5   2   6     60.79   -222.80    164.80  138%2 <
   6   2   6    110.36    221.80    124.10  138%2 <
   7   2   6      7.98    250.70    102.50  138%2 <
   8   2   6     36.56    -79.20     86.30  138%2 <
  -8   3   9     79.51    318.60     95.60  138%2 o
  -7   3   9    164.66    330.40    115.90  138%2 <
  -6   3   9    437.82    517.10    147.40  138%2 o
   6   3   9    346.42    372.40    104.30  138%2 o
   7   3   9     12.09    -11.80     78.90  138%2 <
  -6   4  12    104.07     93.60    115.30  138%2 <
   5   4  12     16.28    -32.90     94.20  138%2 <
   6   4  12     67.67     94.90     71.00  138%2 <
  -4  -4 -13    169.14    120.00     88.10  138%2 <
  -3  -4 -13    179.56    149.60     96.80  138%2 <
  -2  -4 -13     54.72    109.70    109.10  138%2 <
  -7  -3 -10     59.74     56.10     65.00  138%2 <
  -6  -3 -10    562.51    344.30     95.90  138%2 o
  -5  -3 -10   1222.30    707.80    123.60  138%2 o
  -8  -2  -7     59.11    137.30     49.40  138%2 <
   6  -2  -7   1020.60   1176.80    170.80  138%2 o
   8  -1  -4    281.60    160.00     89.50  138%2 <
   9  -1  -4     22.76    109.30     74.20  138%2 <
   9   0  -1    376.44    240.60     82.20  138%2 <
  -6   0   0   7142.40   7388.00    296.60  138%2 o
  -4   0   0   2529.00   3428.40    272.50  138%2 o
   9   1   2     37.57      1.10     94.70  138%2 <
  -8   1   3    510.05    109.80    101.70  138%2 <
  -7   1   3    853.19   1170.30    172.30  138%2 o
  -6   1   3   6467.10   5528.60    252.10  138%2 o
   2   1   3    821.01    719.90    346.30  138%2 <
  -9   2   6    311.26    -70.00     83.40  138%2 <
  -8   2   6    589.13    251.00    102.60  138%2 <
   3   2   6   2399.70   2849.90    243.00  138%2 o
   4   2   6    551.03    448.70    161.50  138%2 <
   3   3   9    993.91   1173.20    191.30  138%2 o
   4   3   9     73.60    444.50    139.20  138%2 o
   5   3   9    439.30    262.30    120.70  138%2 <
   2   4  12   1940.70    855.30    160.10  138%2 o
   3   4  12     91.47    -29.30    117.50  138%2 <
   4   4  12    171.66     45.90     93.50  138%2 <
   1   5  15    232.04    303.10    101.00  138%2 o
   2   5  15     26.75    -97.70     88.10  138%2 <
   3   5  15     52.19    -12.60     65.80  138%2 <
  -5  -4 -13     88.28    266.60     79.10  139%2 o
  -4  -4 -13    205.29    120.00     88.10  139%2 <
  -3  -4 -13    141.32    149.60     96.80  139%2 <
  -2  -4 -13    114.69    109.70    109.10  139%2 <
  -1  -4 -13   1440.30    800.00    147.80  139%2 o
   0  -4 -13   2741.40   1467.90    192.40  139%2 o
   1  -4 -13    131.67    323.40    153.60  139%2 <
  -7  -3 -10    101.27     56.10     65.00  139%2 <
  -6  -3 -10    643.40    344.30     95.90  139%2 o
   4  -3 -10    797.58    674.20    240.70  139%2 <
   5  -2  -7    814.51    410.80    211.70  139%2 <
   6  -2  -7   1015.30   1176.80    170.80  139%2 o
   7  -2  -7     12.92    -33.10    105.00  139%2 <
   7  -1  -4    212.24   -203.70    140.10  139%2 <
   8  -1  -4    270.62    160.00     89.50  139%2 <
   9  -1  -4     41.47    109.30     74.20  139%2 <
   9   0  -1    279.19    240.60     82.20  139%2 <
  -6   0   0   7560.70   7388.00    296.60  139%2 o
  -4   0   0   2594.30   3428.40    272.50  139%2 o
   9   1   2     14.12      1.10     94.70  139%2 <
  -8   1   3    353.50    109.80    101.70  139%2 <
  -7   1   3   1277.20   1170.30    172.30  139%2 o
  -6   1   3   5602.40   5528.60    252.10  139%2 o
  -5   1   3   1147.80   2001.80    212.80  139%2 o
   1   1   3   6331.30   7519.60    542.00  139%2 o
   2   1   3   1047.90    719.90    346.30  139%2 <
   3   1   3  15711.00  19724.40    463.00  139%2 o
  -9   2   6     36.16    -70.00     83.40  139%2 <
  -8   2   6    248.66    251.00    102.60  139%2 <
  -7   2   6   2555.40   1397.70    151.40  139%2 o
   1   2   6  25002.00  27744.30    512.30  139%2 o
   2   2   6    345.64    874.50    230.50  139%2 o
   3   2   6   2361.20   2849.90    243.00  139%2 o
   4   2   6    794.48    448.70    161.50  139%2 <
  -8   3   9     86.97    318.60     95.60  139%2 o
  -7   3   9    180.16    330.40    115.90  139%2 <
   1   3   9    403.41    915.70    209.50  139%2 o
   2   3   9   2110.30   1106.70    203.20  139%2 o
   3   3   9   1111.70   1173.20    191.30  139%2 o
   4   3   9    328.86    444.50    139.20  139%2 o
   0   4  12   2016.30   1057.60    176.40  139%2 o
   1   4  12    919.33    246.40    152.40  139%2 <
   2   4  12   1820.40    855.30    160.10  139%2 o
   3   4  12     48.08    -29.30    117.50  139%2 <
   4   4  12    312.63     45.90     93.50  139%2 <
  -1   5  15    273.48    431.20    118.00  139%2 o
   0   5  15    458.38    330.10    113.80  139%2 <
   1   5  15    237.38    303.10    101.00  139%2 o
   2   5  15     69.81    -97.70     88.10  139%2 <
   3   5  15     56.46    -12.60     65.80  139%2 <
  -5  -2  -6     78.94     69.60    133.90  139%2 <
   6  -1  -4   3439.80   1882.10    200.50  139%2 o
  -9  -1  -3    104.47    -19.80     81.20  139%2 <
  -8  -1  -3    210.78    216.90     89.30  139%2 <
  -7  -1  -3   2164.40   1275.50    150.10  139%2 o
  -6  -1  -3   1194.00    504.20    152.60  139%2 o
  -5  -1  -3   5796.20   5872.20    260.20  139%2 o
  -4  -1  -3    375.29    407.70    186.10  139%2 <
  -3  -1  -3  18657.00  18164.90    419.10  139%2 o
  -2  -1  -3    571.60   1115.50    282.90  139%2 o
   7   0  -1   1023.10    374.60    139.60  139%2 <
  -8   0   0    158.22    121.30     97.10  139%2 <
   7   1   2    316.64    -21.50    124.60  139%2 <
   8   1   2     11.70    150.10     89.50  139%2 <
  -9   1   3     87.13    141.50     73.20  139%2 <
   8   2   5     42.51    183.50     88.30  139%2 <
   7   3   8      6.86     16.00     82.10  139%2 <
  -7  -2  -6      9.87    -42.30     62.00  139%2 <
  -6  -2  -6    132.42     68.80     84.30  139%2 <
   7   2   5    235.29     47.00     82.20  139%2 <
  -1  -5 -16     25.67   -145.30     76.80  140%2 <
  -5  -4 -13     33.65    266.60     79.10  140%2 o
  -4  -4 -13    148.89    120.00     88.10  140%2 <
  -3  -4 -13    120.19    149.60     96.80  140%2 <
  -2  -4 -13     86.54    109.70    109.10  140%2 <
  -1  -4 -13   1428.40    800.00    147.80  140%2 o
   0  -4 -13   1926.90   1467.90    192.40  140%2 o
   1  -4 -13     40.06    323.40    153.60  140%2 <
   5  -2  -7    634.57    410.80    211.70  140%2 <
  -5  -2  -6    110.02     69.60    133.90  140%2 <
  -4  -2  -6    537.19    114.00    150.50  140%2 <
   6  -1  -4   3516.20   1882.10    200.50  140%2 o
   7  -1  -4    199.91   -203.70    140.10  140%2 <
  -9  -1  -3    243.46    -19.80     81.20  140%2 <
  -8  -1  -3     88.23    216.90     89.30  140%2 <
  -7  -1  -3   2148.20   1275.50    150.10  140%2 o
  -6  -1  -3    993.00    504.20    152.60  140%2 o
  -5  -1  -3   6738.00   5872.20    260.20  140%2 o
  -4  -1  -3    264.44    407.70    186.10  140%2 <
  -3  -1  -3  17166.00  18164.90    419.10  140%2 o
  -2  -1  -3    662.07   1115.50    282.90  140%2 o
  -1  -1  -3   6638.50   8502.60    488.40  140%2 o
   7   0  -1   1115.50    374.60    139.60  140%2 <
  -8   0   0     66.62    121.30     97.10  140%2 <
   7   1   2    519.28    -21.50    124.60  140%2 <
   8   1   2      4.30    150.10     89.50  140%2 <
   9   1   2     26.49      1.10     94.70  140%2 <
  -9   1   3    115.67    141.50     73.20  140%2 <
   1   1   3   5473.60   7519.60    542.00  140%2 o
   8   2   5     18.65    183.50     88.30  140%2 <
   1   2   6  23814.00  27744.30    512.30  140%2 o
   2   2   6    190.15    874.50    230.50  140%2 o
   7   3   8     28.86     16.00     82.10  140%2 <
   1   3   9    543.25    915.70    209.50  140%2 o
   2   3   9   2771.30   1106.70    203.20  140%2 o
   0   4  12    489.49   1057.60    176.40  140%2 o
   1   4  12    700.98    246.40    152.40  140%2 <
   2   4  12   1169.30    855.30    160.10  140%2 o
  -1   5  15    725.23    431.20    118.00  140%2 o
   0   5  15     69.89    330.10    113.80  140%2 <
   1   5  15    935.61    303.10    101.00  140%2 o
  -7  -3  -9     13.01     20.00     67.70  140%2 <
  -6  -3  -9    321.44    236.00     89.70  140%2 <
  -5  -3  -9    452.35    315.10    110.90  140%2 <
  -8  -2  -6     43.72    110.40     57.70  140%2 <
  -7  -2  -6      8.70    -42.30     62.00  140%2 <
  -6  -2  -6    148.04     68.80     84.30  140%2 <
  -3  -2  -6   3424.00   3117.10    209.60  140%2 o
   9  -1  -5     38.43    167.10     72.50  140%2 <
   5  -1  -4    390.62    268.00    150.20  140%2 <
   6   1   2    605.07    230.40    155.30  140%2 <
   6   2   5    406.55    236.40    139.70  140%2 <
   7   2   5    207.36     47.00     82.20  140%2 <
   6   3   8     44.40     63.80     68.30  140%2 <
   6   4  11     33.58     43.80     54.50  140%2 <

#=======================================================================

#=======================================================================

#=======================================================================
data_carbamazepine_kinematical
#=======================================================================
_computing_cell_refinement               'PETS2'
_computing_data_reduction                'PETS2'
_computing_structure_refinement          'Jana2006'
_computing_molecular_graphics            'VESTA 3'
#=======================================================================

# 5. CHEMICAL DATA

_chemical_formula_moiety                 'C15 H12 N2 O'
_chemical_formula_sum                    'C15 H16 N2 O'
_chemical_formula_weight                 236.3
_chemical_compound_source                ?
_chemical_absolute_configuration         .

#=======================================================================

# 6. CRYSTAL DATA

_symmetry_cell_setting                   monoclinic
_symmetry_space_group_name_H-M           'P 1 21/n 1'
_symmetry_space_group_name_Hall          '-P 2yabc'
_symmetry_Int_Tables_number              14

loop_
 _space_group_symop_id
 _space_group_symop_operation_xyz
 1   x,y,z
 2   -x+1/2,y+1/2,-z+1/2
 3   -x,-y,-z
 4   x+1/2,-y+1/2,z+1/2

_cell_length_a                           7.5162
_cell_length_b                           11.0697
_cell_length_c                           13.7782
_cell_angle_alpha                        90
_cell_angle_beta                         93.0492
_cell_angle_gamma                        90
_cell_volume                             1144.752

_cell_formula_units_Z                    4

_cell_measurement_reflns_used            ?
_cell_measurement_theta_min              ?
_cell_measurement_theta_max              ?
_cell_measurement_temperature            100
_cell_special_details
; ?
;

_exptl_crystal_density_diffrn            1.3709
_exptl_crystal_density_meas              ?
_exptl_crystal_density_method            ?
_exptl_crystal_F_000                     496

_exptl_absorpt_coefficient_mu            0
_exptl_crystal_description               ?
_exptl_crystal_size_max                  ?
_exptl_crystal_size_mid                  ?
_exptl_crystal_size_min                  ?
_exptl_crystal_size_rad                  ?
_exptl_crystal_colour                    ?
_exptl_absorpt_correction_type           ?
_exptl_absorpt_process_details           ?
_exptl_absorpt_correction_T_min          ?
_exptl_absorpt_correction_T_max          ?

#=======================================================================

# 7. EXPERIMENTAL DATA

_diffrn_ambient_temperature              100
_diffrn_source                           ?
_diffrn_source_power                     ?
_diffrn_source_voltage                   200000
_diffrn_source_current                   ?
_diffrn_radiation_type                   electron
_diffrn_radiation_source                 ?
_diffrn_radiation_wavelength             0.02508
_diffrn_measurement_device               'TEM ThermoFisher Talos Artica'
_diffrn_measurement_device_type          'CMOS'
_diffrn_detector                         'Ceta-D'
_diffrn_measurement_method               'continuous-rotation 3D electron diffraction'
_diffrn_measurement_specimen_support     'holey carbon grid'

_diffrn_reflns_number                    28242
_diffrn_reflns_theta_min                 0.08
_diffrn_reflns_theta_max                 0.93
_diffrn_reflns_theta_full                0.9
_diffrn_measured_fraction_theta_max      0.8
_diffrn_measured_fraction_theta_full     0.82
_diffrn_reflns_av_R_equivalents          ?
_diffrn_reflns_av_unetI/netI             0.0339
_diffrn_reflns_limit_h_min               -9
_diffrn_reflns_limit_h_max               9
_diffrn_reflns_limit_k_min               -13
_diffrn_reflns_limit_k_max               14
_diffrn_reflns_limit_l_min               -17
_diffrn_reflns_limit_l_max               17
_diffrn_reflns_reduction_process         ?

_diffrn_radiation_probe                  electron

#=======================================================================

# 8. REFINEMENT DATA

_reflns_number_total                     1978
_reflns_number_gt                        1128
_reflns_threshold_expression             'I>3\s(I)'

_refine_ls_structure_factor_coef         F
_refine_ls_R_factor_gt                   0.1637
_refine_ls_wR_factor_gt                  0.1743
_refine_ls_R_factor_all                  0.2268
_refine_ls_wR_factor_ref                 0.1870
_refine_ls_goodness_of_fit_ref           3.29
_refine_ls_goodness_of_fit_gt            4.17
_refine_ls_restrained_S_gt               ?
_refine_ls_restrained_S_all              ?
_refine_ls_number_reflns                 1978
_refine_ls_number_parameters             176
_refine_ls_number_restraints             0
_refine_ls_number_constraints            36
_refine_ls_weighting_scheme              sigma
_refine_ls_weighting_details             'w=1/(\s^2^(F)+0.0001F^2^)'
_refine_ls_hydrogen_treatment            'constr'
_refine_ls_shift/su_max                  0.0017
_refine_ls_shift/su_mean                 0.0003
_refine_diff_density_max                 0.17
_refine_diff_density_min                 -0.23
_refine_ls_extinction_method             'SHELXL-2017/1 (Sheldrick, 2015)'
_refine_ls_extinction_coef               28000(3000)
_refine_ls_extinction_expression         'Fc^*^=kFc[1+0.001xFc^2^\l^3^/sin(2\q)]^-1/4^'

loop_
 _atom_type_symbol
 _atom_type_scat_source
 C   International_Tables_Vol_C
 H   International_Tables_Vol_C
 N   International_Tables_Vol_C
 O   International_Tables_Vol_C

 #=======================================================================

# 9. ATOMIC COORDINATES AND DISPLACEMENT PARAMETERS

loop_
 _atom_site_label
 _atom_site_type_symbol
 _atom_site_fract_x
 _atom_site_fract_y
 _atom_site_fract_z
 _atom_site_adp_type
 _atom_site_U_iso_or_equiv
 _atom_site_site_symmetry_multiplicity
 _atom_site_occupancy
 _atom_site_calc_flag
 _atom_site_refinement_flags
 _atom_site_disorder_assembly
 _atom_site_disorder_group
  O1 O 0.5055(7) 0.3762(5) 1.0948(5) Uani 0.0439(19) 4 1 d . . .
  N1 N 0.3212(9) 0.4027(6) 0.9601(5) Uani 0.049(2) 4 1 d . . .
  N2 N 0.2988(7) 0.2314(6) 1.0622(4) Uani 0.0374(19) 4 1 d . . .
  C1 C 0.3841(8) 0.3410(6) 1.0413(4) Uani 0.035(2) 4 1 d . . .
  C2 C 0.3302(8) 0.1704(6) 1.1500(5) Uani 0.040(2) 4 1 d . . .
  C3 C 0.4947(11) 0.1115(7) 1.1690(5) Uani 0.047(3) 4 1 d . . .
  H3 H 0.593391 0.116819 1.114785 Uiso 0.071(12) 4 1 d . . .
  C4 C 0.5368(10) 0.0471(7) 1.2533(5) Uani 0.051(3) 4 1 d . . .
  H4 H 0.661113 -0.001346 1.264733 Uiso 0.047(8) 4 1 d . . .
  C5 C 0.4029(8) 0.0492(7) 1.3251(6) Uani 0.052(3) 4 1 d . . .
  H5 H 0.428 0.001487 1.392948 Uiso 0.057(9) 4 1 d . . .
  C6 C 0.2484(10) 0.1088(6) 1.3095(6) Uani 0.046(3) 4 1 d . . .
  H6 H 0.155585 0.110597 1.366871 Uiso 0.059(10) 4 1 d . . .
  C7 C 0.2009(9) 0.1703(6) 1.2198(4) Uani 0.040(2) 4 1 d . . .
  C8 C 0.0315(8) 0.2203(7) 1.2040(5) Uani 0.042(2) 4 1 d . . .
  H8 H -0.027129 0.250658 1.269762 Uiso 0.11(2) 4 1 d . . .
  C9 C -0.0731(9) 0.2383(7) 1.1232(5) Uani 0.049(3) 4 1 d . . .
  H9 H -0.198321 0.285333 1.128941 Uiso 0.053(9) 4 1 d . . .
  C10 C -0.0215(8) 0.1947(6) 1.0241(5) Uani 0.033(2) 4 1 d . . .
  C11 C -0.1595(9) 0.1665(7) 0.9605(5) Uani 0.043(2) 4 1 d . . .
  H11 H -0.295744 0.181379 0.979224 Uiso 0.071(12) 4 1 d . . .
  C12 C -0.1212(11) 0.1171(7) 0.8694(6) Uani 0.051(3) 4 1 d . . .
  H12 H -0.229575 0.088696 0.819786 Uiso 0.094(17) 4 1 d . . .
  C13 C 0.0535(10) 0.1045(7) 0.8424(5) Uani 0.047(3) 4 1 d . . .
  H13 H 0.084652 0.067022 0.772771 Uiso 0.069(11) 4 1 d . . .
  C14 C 0.1867(9) 0.1430(7) 0.9103(5) Uani 0.045(2) 4 1 d . . .
  H14 H 0.323721 0.136596 0.890419 Uiso 0.025(5) 4 1 d . . .
  C15 C 0.1548(10) 0.1883(7) 1.0006(6) Uani 0.048(2) 4 1 d . . .
  H1a H 0.21973 0.368913 0.918406 Uiso 0.084(14) 4 1 d . . .
  H1b H 0.37665 0.481473 0.942479 Uiso 0.047(8) 4 1 d . . .

loop_
 _atom_site_aniso_label
 _atom_site_aniso_type_symbol
 _atom_site_aniso_U_11
 _atom_site_aniso_U_22
 _atom_site_aniso_U_33
 _atom_site_aniso_U_12
 _atom_site_aniso_U_13
 _atom_site_aniso_U_23
 O1 O 0.038(3) 0.033(3) 0.060(3) -0.015(2) -0.001(3) 0.008(3)
 N1 N 0.049(4) 0.040(4) 0.058(4) -0.007(3) -0.007(3) 0.013(3)
 N2 N 0.036(3) 0.041(4) 0.035(3) 0.003(2) 0.004(2) -0.006(3)
 C1 C 0.040(4) 0.037(4) 0.029(3) -0.004(3) 0.002(3) -0.007(3)
 C2 C 0.048(4) 0.022(4) 0.050(4) 0.014(3) 0.004(3) -0.009(3)
 C3 C 0.073(5) 0.044(5) 0.024(3) -0.001(3) 0.006(3) 0.001(3)
 C4 C 0.051(4) 0.057(5) 0.043(4) 0.013(3) -0.004(3) 0.000(4)
 C5 C 0.054(5) 0.049(5) 0.051(4) 0.003(3) -0.016(4) 0.008(4)
 C6 C 0.054(5) 0.040(4) 0.043(4) 0.005(3) -0.015(4) -0.007(3)
 C7 C 0.062(4) 0.035(4) 0.024(3) -0.002(3) 0.005(3) 0.002(3)
 C8 C 0.030(4) 0.056(5) 0.039(4) 0.001(3) 0.002(3) 0.001(3)
 C9 C 0.038(4) 0.068(6) 0.042(4) -0.006(3) 0.007(3) -0.003(4)
 C10 C 0.035(3) 0.025(3) 0.040(4) 0.007(2) 0.007(3) -0.012(3)
 C11 C 0.044(4) 0.043(4) 0.042(4) -0.001(3) -0.005(3) 0.004(3)
 C12 C 0.057(5) 0.055(5) 0.038(4) -0.003(3) -0.011(3) 0.005(4)
 C13 C 0.051(5) 0.064(5) 0.028(3) 0.011(3) 0.003(3) -0.002(3)
 C14 C 0.045(4) 0.056(5) 0.036(4) -0.002(3) 0.008(3) -0.001(4)
 C15 C 0.059(4) 0.038(4) 0.045(4) -0.018(3) 0.002(3) 0.006(3)

 #=======================================================================

# 10. MOLECULAR GEOMETRY


loop_
 _geom_bond_atom_site_label_1
 _geom_bond_atom_site_label_2
 _geom_bond_site_symmetry_1
 _geom_bond_site_symmetry_2
 _geom_bond_distance
 _geom_bond_publ_flag
  O1 C1 . . 1.207(8) ?
  N1 C1 . . 1.373(10) ?
  N2 C1 . . 1.410(9) ?
  N2 C2 . . 1.394(9) ?
  N2 C15 . . 1.422(9) ?
  C2 C3 . . 1.410(10) ?
  C2 C7 . . 1.403(10) ?
  C3 C4 . . 1.384(10) ?
  C4 C5 . . 1.448(11) ?
  C5 C6 . . 1.343(10) ?
  C6 C7 . . 1.439(10) ?
  C7 C8 . . 1.395(9) ?
  C8 C9 . . 1.343(10) ?
  C9 C10 . . 1.518(10) ?
  C10 C11 . . 1.358(9) ?
  C10 C15 . . 1.383(10) ?
  C11 C12 . . 1.413(11) ?
  C12 C13 . . 1.390(11) ?
  C13 C14 . . 1.400(10) ?
  C14 C15 . . 1.374(11) ?

loop_
 _geom_angle_atom_site_label_1
 _geom_angle_atom_site_label_2
 _geom_angle_atom_site_label_3
 _geom_angle_site_symmetry_1
 _geom_angle_site_symmetry_2
 _geom_angle_site_symmetry_3
 _geom_angle
 _geom_angle_publ_flag
  C1 N2 C2 . . . 122.5(5) ?
  C1 N2 C15 . . . 120.4(6) ?
  C2 N2 C15 . . . 116.4(6) ?
  O1 C1 N1 . . . 123.7(7) ?
  O1 C1 N2 . . . 119.3(6) ?
  N1 C1 N2 . . . 117.0(6) ?
  N2 C2 C3 . . . 119.4(6) ?
  N2 C2 C7 . . . 120.2(6) ?
  C3 C2 C7 . . . 120.3(6) ?
  C2 C3 C4 . . . 123.5(7) ?
  C3 C4 C5 . . . 115.4(7) ?
  C4 C5 C6 . . . 121.7(7) ?
  C5 C6 C7 . . . 122.8(7) ?
  C2 C7 C6 . . . 116.1(6) ?
  C2 C7 C8 . . . 123.5(6) ?
  C6 C7 C8 . . . 120.3(6) ?
  C7 C8 C9 . . . 132.6(7) ?
  C8 C9 C10 . . . 122.2(6) ?
  C9 C10 C11 . . . 115.5(6) ?
  C9 C10 C15 . . . 121.4(6) ?
  C11 C10 C15 . . . 123.1(6) ?
  C10 C11 C12 . . . 118.5(7) ?
  C11 C12 C13 . . . 121.1(7) ?
  C12 C13 C14 . . . 116.2(7) ?
  C13 C14 C15 . . . 124.3(7) ?
  N2 C15 C10 . . . 123.5(7) ?
  N2 C15 C14 . . . 120.0(7) ?
  C10 C15 C14 . . . 116.5(7) ?

  #=======================================================================

# 11. STRUCTURE-FACTOR LIST

loop_
 _refln_index_h
 _refln_index_k
 _refln_index_l
 _refln_F_squared_calc
 _refln_F_squared_meas
 _refln_F_squared_sigma
 _refln_observed_status
   2   0   0   37.94   45.73    1.52 o
   4   0   0    7.33   12.15    0.81 o
   6   0   0   46.12   29.79    4.16 o
   1   1   0  111.83  101.27   35.67 <
   2   1   0  278.99  400.90    3.86 o
   3   1   0  119.87  158.61   16.30 o
   4   1   0    6.04   12.17    0.54 o
   6   1   0    5.44    5.03    2.82 <
   7   1   0    1.66    0.28    0.18 <
   1   2   0  189.76  283.19   24.73 o
   2   2   0   33.74   32.77    7.91 o
   3   2   0   87.27   64.40    8.98 o
   4   2   0    2.80    4.67    0.24 o
   5   2   0   13.58    8.66    0.42 o
   9   2   0    0.25    0.05    0.05 <
   2   3   0    0.03    1.99    1.59 <
   3   3   0   11.27    8.11    0.64 o
   4   3   0   13.64   10.70    2.57 o
   5   3   0    2.03    0.97    3.25 <
   6   3   0   18.73   10.71    0.43 o
   7   3   0    2.74    2.13    0.23 o
   8   3   0    0.23    0.05    0.18 <
   1   4   0  105.81   80.36    6.31 o
   2   4   0   62.76   50.37    2.93 o
   3   4   0   57.32   49.51    6.04 o
   4   4   0    0.59    0.50    0.41 <
   5   4   0    5.76    3.33    0.67 o
   6   4   0   11.10   12.25    1.65 o
   7   4   0   10.01    2.21    1.03 <
   8   4   0    1.13    3.61    3.56 <
   9   4   0    0.11    0.14    0.09 <
   1   5   0    5.55    8.50    2.78 o
   2   5   0    0.86    8.22    2.25 o
   3   5   0   43.77   40.37    4.15 o
   4   5   0    7.12    2.06    1.08 <
   5   5   0    0.56    0.27    1.60 <
   6   5   0    5.41    7.99    2.04 o
   7   5   0    0.66    2.73    1.73 <
   8   5   0    3.29    2.51    2.18 <
   1   6   0   15.80   12.83    3.82 o
   2   6   0   42.58  117.77   47.34 <
   3   6   0    4.76    1.34    0.62 <
   4   6   0   24.11   26.51    3.55 o
   5   6   0   19.27   29.10    0.85 o
   6   6   0    8.37    4.32    0.58 o
   7   6   0    1.36    1.19    1.47 <
   8   6   0    0.10   -0.91    1.27 <
   1   7   0    0.17    3.90    1.18 o
   2   7   0    0.08    6.17    2.77 <
   3   7   0   16.06   16.82    4.14 o
   4   7   0    9.91   12.25    0.90 o
   5   7   0    0.12    0.82    0.59 <
   6   7   0    1.83    1.15    0.51 <
   7   7   0    0.03    1.59    0.72 <
   1   8   0    0.41    1.64    0.77 <
   2   8   0    1.11    1.70    0.32 o
   3   8   0    1.65    4.88    1.01 o
   4   8   0    5.02    5.60    2.09 <
   5   8   0    2.11    3.28    1.29 <
   6   8   0    0.12    0.00    2.13 <
   7   8   0    0.57    2.23    2.18 <
   1   9   0   10.68   26.67    2.71 o
   2   9   0    2.83    4.47    0.51 o
   3   9   0    8.86    9.99    6.22 <
   4   9   0    0.01    1.90    1.49 <
   5   9   0    0.27    2.50    1.41 <
   6   9   0    1.43    2.66    0.87 o
   1  10   0    0.20    2.50    0.86 <
   2  10   0    1.26    0.92    0.46 <
   3  10   0    0.10    3.76    1.63 <
   4  10   0    3.01    5.06    2.41 <
   5  10   0    1.60    2.80    1.19 <
   6  10   0    0.55    0.59    0.18 o
   1  11   0    0.92    1.42    0.14 o
   2  11   0    1.58    2.02    0.18 o
   3  11   0    2.82    3.71    1.02 o
   4  11   0    0.00    1.00    0.68 <
   5  11   0    0.46    0.68    0.36 <
   6  11   0    0.21    0.23    0.09 <
   1  12   0    0.15    0.32    0.09 o
   2  12   0    8.51   10.27    2.84 o
   3  12   0    0.01    1.13    0.72 <
   4  12   0    2.41    1.11    0.18 o
   5  12   0    0.07    0.18    0.09 <
   1  13   0    0.16    0.14    0.05 o
   3  13   0    0.00    0.18    0.14 <
  -5   0   1   42.04   31.86    1.64 o
   1   0   1   53.72  162.56   36.44 o
   3   0   1   86.49   98.83    9.58 o
   5   0   1    1.23    3.31    1.33 <
   7   0   1    1.64    4.37    1.66 <
  -8   1   1    0.23    0.82    0.23 o
  -7   1   1    6.42    6.71    0.72 o
  -6   1   1    1.94    1.39    0.37 o
  -4   1   1    4.89    4.43    0.15 o
  -3   1   1  103.62  147.40   31.03 o
  -2   1   1    2.98   16.48   11.07 <
  -1   1   1  602.88  511.64    3.90 o
   0   1   1   76.72   62.55   17.92 o
   1   1   1   76.40  145.02    7.74 o
   2   1   1    4.48    3.16    0.92 o
   3   1   1    1.83    3.66    0.47 o
   4   1   1    3.76    5.99    0.86 o
   5   1   1   17.85   11.75    1.31 o
   6   1   1    1.62    2.76    0.88 o
   7   1   1    0.01    1.45    0.63 <
   8   1   1    2.06    0.55    0.92 <
  -9   2   1    0.02    0.05    0.09 <
  -8   2   1    0.47    0.50    0.23 <
  -7   2   1   17.28   14.24    0.83 o
  -6   2   1    0.00    1.86    0.91 <
  -5   2   1    1.41    2.40    1.34 <
  -4   2   1   53.68   45.65    4.87 o
  -3   2   1    1.20    0.74    0.09 o
  -2   2   1  144.43  180.36   13.73 o
  -1   2   1  279.16  292.50    2.74 o
   1   2   1   22.94   21.17    3.26 o
   2   2   1    4.49    5.43    0.86 o
   3   2   1   19.79   19.92    0.84 o
   4   2   1   19.30   16.14    1.26 o
   5   2   1    1.58    1.85    0.65 <
   6   2   1    0.18    2.18    0.50 o
   7   2   1    1.72    2.53    0.74 o
   8   2   1    1.15    0.05    0.73 <
  -8   3   1    5.52    3.12    0.71 o
  -7   3   1    1.84    2.53    0.23 o
  -6   3   1    3.00    2.47    0.28 o
  -4   3   1    3.46    6.32    0.43 o
  -3   3   1  199.29  182.67    2.07 o
  -2   3   1    0.26    0.68    0.23 <
  -1   3   1 1094.70  594.15   20.76 o
   2   3   1   50.41   57.19    2.45 o
   3   3   1   77.88   90.58    4.91 o
   4   3   1    7.17    7.21    1.34 o
   5   3   1    1.51    1.11    0.55 <
   6   3   1   22.80   15.02    2.03 o
   7   3   1    2.65    1.25    0.42 o
   8   3   1    0.24    1.50    0.86 <
   9   3   1    0.14    0.32    0.14 <
  -9   4   1    0.02    0.05    0.14 <
  -7   4   1    9.70    4.50    0.34 o
  -6   4   1   12.15    9.84    2.37 o
  -5   4   1    0.64    0.78    0.18 o
  -4   4   1    3.29   15.12    1.04 o
  -3   4   1   96.13   97.19    1.28 o
  -2   4   1    0.16    5.50    4.27 <
  -1   4   1    7.13    8.89    5.09 <
   0   4   1    2.36    1.96    1.05 <
   1   4   1  283.70  416.06  194.63 <
   2   4   1   32.53   31.01    2.30 o
   3   4   1   29.14   31.99    3.39 o
   4   4   1    0.81    3.53    1.14 o
   5   4   1    0.55    1.87    0.68 <
   6   4   1    1.10    4.03    1.37 <
   7   4   1    0.02    2.49    0.91 <
   8   4   1    1.75    1.33    0.73 <
  -8   5   1    0.23    1.00    0.27 o
  -6   5   1   34.77   29.85    7.23 o
  -5   5   1    0.05    2.13    0.54 o
  -4   5   1   17.28   11.15    0.70 o
  -3   5   1    9.50    6.18    0.36 o
  -2   5   1   14.58    8.87    0.44 o
  -1   5   1   60.56   66.13    1.05 o
   1   5   1    0.02    3.72    1.86 <
   2   5   1   15.56   10.12    2.73 o
   3   5   1    7.23    8.46    0.99 o
   4   5   1    3.51    1.61    0.24 o
   5   5   1    2.10    1.81    0.28 o
   6   5   1    3.07    4.84    3.21 <
   7   5   1    3.10    4.74    0.46 o
   8   5   1    0.42    0.86    0.55 <
  -8   6   1    0.10    0.82    0.36 <
  -7   6   1    0.73    0.82    0.09 o
  -6   6   1    7.11    8.03    0.34 o
  -5   6   1   19.41   28.22    1.12 o
  -4   6   1    2.20    1.39    0.14 o
  -3   6   1    2.72    1.78    0.37 o
  -2   6   1   54.10   79.73    9.69 o
   1   6   1    4.08   10.72    2.07 o
   2   6   1   57.96   60.00    8.55 o
   3   6   1   39.49   46.72    7.57 o
   4   6   1    0.09    0.63    0.68 <
   5   6   1   31.00   28.38    4.73 o
   6   6   1    1.16    2.79    0.55 o
   7   6   1    0.06    1.54    0.91 <
  -8   7   1    2.71    1.52    0.28 o
  -7   7   1    2.96    2.36    0.37 o
  -6   7   1    1.31    0.64    0.41 <
  -5   7   1    8.60    6.89    0.29 o
  -4   7   1    6.56    5.65    0.34 o
  -3   7   1    0.49    0.55    0.18 o
  -2   7   1   14.60    7.52    0.48 o
   0   7   1   13.42   16.20    3.28 o
   1   7   1    0.36    3.19    2.32 <
   2   7   1   43.20   47.60    4.90 o
   3   7   1   11.16   11.93    1.12 o
   4   7   1    1.11    2.02    0.78 <
   5   7   1    0.36    0.27    0.68 <
   6   7   1    2.18    1.75    0.42 o
   7   7   1    2.38    2.44    0.46 o
  -7   8   1    2.86    1.90    1.02 <
  -5   8   1    2.63    3.34    0.42 o
  -4   8   1    3.02    2.28    0.19 o
  -2   8   1    0.19    1.77    0.91 <
   0   8   1    0.10    2.63    0.82 o
   1   8   1    6.53    3.50    1.02 o
   2   8   1    0.16    1.77    0.50 o
   3   8   1    0.25    0.95    0.45 <
   4   8   1    0.14    0.82    0.50 <
   5   8   1   14.23   10.73    3.19 o
   6   8   1    0.30    1.27    0.45 <
   7   8   1    0.75    1.09    0.46 <
  -6   9   1    7.36    5.30    0.24 o
  -4   9   1    0.52    2.46    0.46 o
  -3   9   1    1.46    1.47    0.23 o
   0   9   1    0.90    1.46    0.27 o
   1   9   1    1.93    1.02    0.51 <
   2   9   1    3.79    6.67    1.60 o
   3   9   1    1.06    1.01    0.37 <
   4   9   1    0.21    2.27    1.63 <
   5   9   1    0.35    0.82    0.41 <
   6   9   1    0.97    1.83    1.14 <
  -5  10   1    0.44    0.45    0.18 <
  -3  10   1    0.56    0.55    0.09 o
  -2  10   1    3.21    2.38    0.19 o
   0  10   1    0.37    2.14    0.36 o
   1  10   1    1.27    1.88    1.19 <
   2  10   1    0.18    0.59    0.27 <
   3  10   1    1.50    2.43    1.06 <
   4  10   1    1.02    0.73    0.18 o
   5  10   1    1.22    1.28    0.46 <
  -6  11   1    0.25    0.36    0.09 o
  -5  11   1    0.00    0.32    0.27 <
  -4  11   1    0.18    0.32    0.05 o
  -2  11   1    3.33    2.42    0.19 o
   0  11   1    0.49    0.41    0.09 o
   1  11   1    2.20    3.60    0.42 o
   2  11   1    2.30    1.71    0.37 o
   3  11   1    0.88    1.28    0.32 o
   4  11   1    0.33    1.63    1.32 <
   5  11   1    0.12   -0.14    0.18 <
  -5  12   1    0.01   -0.05    0.23 <
   0  12   1    0.22    0.68    0.09 o
   1  12   1    1.19    1.37    0.37 o
   2  12   1    0.15    0.45    0.36 <
   3  12   1    2.09    4.09    0.46 o
   5  12   1    0.42    0.09    0.09 <
   0  13   1    0.03    0.63    0.41 <
   1  13   1    0.57    0.27    0.14 <
   2   0   2   93.98  136.37   12.35 o
   4   0   2  131.76  170.82   20.22 o
   6   0   2   74.05   71.90   15.16 o
   8   0   2    0.17    0.18    0.73 <
  -8   1   2    0.44    0.14    0.18 <
  -7   1   2    7.56    6.82    0.53 o
  -6   1   2   25.25   37.39    1.18 o
  -5   1   2    3.51    3.17    2.03 <
  -4   1   2   43.30   45.09   12.73 o
  -3   1   2   56.33   52.86    1.40 o
  -2   1   2  697.14  993.52    7.45 o
  -1   1   2  454.76  417.86    2.52 o
   0   1   2  177.81  208.38   21.33 o
   1   1   2  602.94  687.30    6.60 o
   2   1   2    4.05    2.45    0.40 o
   3   1   2    1.92    6.34    1.32 o
   4   1   2   19.86   23.49    2.70 o
   5   1   2   30.79   24.27    3.55 o
   6   1   2    3.90    5.80    0.85 o
   7   1   2    0.91    1.10    0.55 <
   8   1   2    0.40    0.45    0.27 <
   9   1   2    0.15    0.09    0.18 <
  -9   2   2    1.81    0.28    0.23 <
  -7   2   2    0.50   -0.05    0.18 <
  -6   2   2    0.33    2.14    0.32 o
  -5   2   2    0.89    1.28    0.27 o
  -4   2   2    0.25    0.36    0.18 <
  -3   2   2  183.73  247.21   14.73 o
  -2   2   2  171.60  130.43    5.04 o
  -1   2   2   95.00   95.50    0.49 o
   0   2   2  572.99  425.30    5.10 o
   2   2   2  236.02  404.49   39.87 o
   3   2   2  112.00  101.39   11.71 o
   4   2   2    4.82    1.36    0.39 o
   5   2   2    2.84    5.62    0.98 o
   6   2   2    0.60    0.59    0.64 <
   7   2   2    0.19    0.23    0.54 <
   8   2   2    1.15    0.87    0.27 o
  -8   3   2    4.45    2.72    0.84 o
  -7   3   2   11.91   25.08    1.10 o
  -5   3   2    2.55    6.35    2.61 <
  -4   3   2   12.56    6.23    2.85 <
  -3   3   2   17.04   14.92    0.17 o
  -2   3   2  114.82   87.32   46.76 <
  -1   3   2  217.94  216.43    8.77 o
   1   3   2    1.71    2.83    0.61 o
   2   3   2   27.43   26.00    2.59 o
   3   3   2   25.92   24.04    1.12 o
   4   3   2   17.88   18.58    0.67 o
   5   3   2    3.16    2.72    0.70 o
   6   3   2   12.33   12.60    0.86 o
   7   3   2    2.85    2.88    0.56 o
   8   3   2    1.35    1.37    0.50 <
   9   3   2    0.05    0.36    0.14 <
  -9   4   2    1.03    0.64    0.14 o
  -7   4   2    1.59    0.83    0.09 o
  -6   4   2    3.10    3.03    0.23 o
  -5   4   2    4.28    1.76    0.28 o
  -4   4   2   20.93   24.97    5.87 o
  -3   4   2   96.69   89.25    4.19 o
  -2   4   2   46.88   57.34    5.55 o
   0   4   2   20.69   51.80   12.05 o
   1   4   2    8.23   17.70    5.15 o
   2   4   2    6.12    7.11    1.15 o
   3   4   2   16.96   16.49    0.50 o
   4   4   2    2.74    4.83    0.84 o
   5   4   2    5.45    3.79    0.53 o
   6   4   2    7.24    7.54    1.31 o
   7   4   2    1.80    2.39    0.78 o
   8   4   2    0.19    0.27    0.59 <
   9   4   2    0.43    0.18    0.09 <
  -8   5   2    0.52    0.36    0.09 o
  -6   5   2    5.49   10.13    1.00 o
  -5   5   2    3.77    5.70    2.78 <
  -4   5   2    0.40    1.50    0.59 <
  -3   5   2   12.58   16.87    1.32 o
  -2   5   2   48.60   50.58    3.04 o
   0   5   2    4.29   13.89    1.85 o
   1   5   2   11.12   25.63   16.55 <
   2   5   2   15.19   10.09    1.87 o
   3   5   2    5.11    6.20    0.24 o
   4   5   2    0.15    1.13    0.73 <
   5   5   2   13.35   19.12    0.82 o
   6   5   2   11.56   14.27    0.55 o
   7   5   2    0.06    0.59    0.23 <
   8   5   2    3.25    4.27    1.16 o
  -8   6   2    0.35    0.27    0.05 o
  -7   6   2    0.10    0.32    0.14 <
  -6   6   2    0.79    4.52    2.42 <
  -5   6   2    1.48    0.28    0.28 <
  -4   6   2    2.12    1.85    0.19 o
  -3   6   2    3.09    5.93    0.33 o
  -2   6   2   28.16   12.55    0.85 o
   0   6   2   65.07  108.93    4.95 o
   1   6   2  136.02  203.30   25.00 o
   2   6   2   44.06   52.82    8.71 o
   3   6   2    6.85   12.06    1.91 o
   4   6   2   10.72   11.14    0.35 o
   5   6   2    7.29    5.52    1.16 o
   6   6   2    2.87    3.62    0.42 o
   7   6   2    0.83    0.23    0.41 <
  -8   7   2    0.01    0.95    0.41 <
  -7   7   2    0.05    0.63    0.23 <
  -6   7   2    0.00   -0.09    0.09 <
  -5   7   2    1.02    0.14    0.18 <
  -4   7   2    0.13    0.59    0.14 o
  -3   7   2    0.66    0.73    0.14 o
  -2   7   2   42.73   46.23    6.57 o
   0   7   2    3.83    3.52    0.19 o
   1   7   2    9.84   11.83    4.11 <
   2   7   2   25.11   48.34    8.59 o
   3   7   2   12.69   19.53    1.44 o
   4   7   2   14.68   17.36    2.84 o
   5   7   2    0.00    0.18    0.36 <
   6   7   2    0.10    0.91    0.45 <
   7   7   2    0.23    0.50    0.27 <
  -7   8   2    2.58    1.15    0.14 o
  -6   8   2    1.45    6.46    1.47 o
  -5   8   2    6.28   16.18    4.92 o
  -4   8   2    0.10    0.95    0.77 <
  -3   8   2    0.05    8.52    7.66 <
  -2   8   2    0.59    2.55    0.50 o
   0   8   2    1.11    0.64    0.41 <
   1   8   2    0.07    9.66    8.30 <
   2   8   2    0.39    5.82    1.32 o
   3   8   2    0.48    1.23    0.46 <
   4   8   2    0.00    0.09    0.59 <
   5   8   2    3.27    4.47    0.84 o
   6   8   2    0.10    0.95    0.63 <
   7   8   2    0.51    0.68    0.18 o
  -7   9   2    0.04    0.36    0.09 o
  -6   9   2    2.21    3.68    0.41 o
  -4   9   2    0.33    0.50    0.14 o
  -3   9   2    3.07    2.84    0.37 o
  -2   9   2    2.36    1.76    0.19 o
   0   9   2    0.09    1.04    0.27 o
   1   9   2    4.69    9.06    2.18 o
   2   9   2    0.94    1.65    0.14 o
   3   9   2    0.03    0.18    0.32 <
   4   9   2    2.50    3.70    0.60 o
   5   9   2    1.45    1.28    0.46 <
   6   9   2    0.60    0.73    0.23 o
   7   9   2    0.38    0.23    0.09 <
  -6  10   2    0.23    0.77    0.14 o
  -5  10   2    1.36    3.30    0.23 o
  -4  10   2    0.89    1.05    0.14 o
  -2  10   2    4.03    2.77    0.19 o
   0  10   2    1.58    2.30    0.87 <
   1  10   2    7.58    8.52    1.31 o
   2  10   2    0.36    1.14    0.77 <
   3  10   2    0.41    0.50    0.23 <
   4  10   2    1.75    1.42    0.51 <
   5  10   2    0.06    0.50    0.27 <
   6  10   2    0.52    0.55    0.09 o
  -6  11   2    1.83    3.76    0.37 o
  -5  11   2    0.37    0.05    0.09 <
  -3  11   2    1.21    1.46    0.55 <
   0  11   2    0.88   14.33    7.48 <
   1  11   2    0.14    0.50    0.36 <
   2  11   2    9.28    8.13    0.63 o
   3  11   2    1.74    1.15    0.18 o
   4  11   2    0.62    0.73    0.27 <
  -5  12   2    1.62    0.41    0.09 o
  -4  12   2    0.56    0.86    0.09 o
  -3  12   2    0.46    0.45    0.09 o
   0  12   2    0.37    0.18    0.09 <
   1  12   2    5.03    9.93    3.01 o
   2  12   2    1.25    1.28    0.27 o
   3  12   2    0.33    0.14    0.14 <
  -3  13   2    1.70    3.21    0.37 o
   0  13   2    0.13    0.41    0.27 <
   1  13   2    2.75    2.63    1.06 <
   2  13   2    1.68    1.33    0.14 o
   1   0   3   24.09   23.36    1.46 o
   3   0   3    3.69   11.88    1.45 o
   5   0   3   97.41  101.82   23.13 o
   7   0   3   28.04   27.98    9.71 <
  -9   1   3    0.01    0.54    0.27 <
  -8   1   3    0.02    0.36    0.14 <
  -7   1   3    8.77    8.78    3.46 <
  -6   1   3   30.62   35.10   15.92 <
  -5   1   3    9.04    4.41    1.10 o
  -4   1   3    4.17    4.71    0.24 o
  -3   1   3   83.32  141.16   10.10 o
  -2   1   3   91.37  154.81   22.22 o
   0   1   3   96.59  164.07   41.89 o
   1   1   3   23.89   26.77    6.08 o
   2   1   3    2.28    4.63    0.86 o
   3   1   3   78.88  124.82    8.57 o
   4   1   3    0.43   10.03    4.10 <
   5   1   3   49.74   61.37   11.36 o
   6   1   3    6.13    8.60    0.72 o
   7   1   3   16.26   17.59    3.86 o
   8   1   3    2.22    2.44    0.51 o
   9   1   3    1.85    0.37    0.28 <
  -9   2   3    0.65    0.18    0.36 <
  -8   2   3    0.64    1.64    0.36 o
  -7   2   3    0.30    2.32    0.64 o
  -6   2   3    1.04    0.92    0.14 o
  -5   2   3   28.73   15.35    4.07 o
  -4   2   3   29.15   21.52    7.95 <
  -3   2   3  135.38  189.60   34.40 o
  -2   2   3   64.72   70.01    3.69 o
  -1   2   3   57.58   39.46    2.33 o
   0   2   3  781.84  734.35  116.53 o
   1   2   3   22.12   14.67    2.15 o
   2   2   3   23.27   29.40    1.99 o
   3   2   3    3.90    3.81    0.48 o
   4   2   3   71.92   76.59   12.78 o
   5   2   3   13.26    9.91    1.56 o
   6   2   3   17.83   22.61    4.33 o
   7   2   3    8.01    8.71    0.58 o
   8   2   3    0.81    0.77    0.14 o
   9   2   3    0.09   -0.05    0.09 <
  -9   3   3    1.53    0.05    0.18 <
  -8   3   3    0.25    0.32    0.45 <
  -7   3   3    0.06    0.82    0.32 <
  -6   3   3    7.77    6.87    0.15 o
  -5   3   3   10.45   13.90    4.14 o
  -4   3   3   44.53   46.70    0.95 o
  -2   3   3    4.90   12.09    4.81 <
   0   3   3  108.58  143.38    9.75 o
   1   3   3   76.80   65.02    4.82 o
   2   3   3   39.97   47.52    3.84 o
   3   3   3   17.93    5.69    1.88 o
   4   3   3    0.11    0.73    0.41 <
   5   3   3    3.87    2.13    0.85 <
   6   3   3   24.31   23.84    3.19 o
   7   3   3    2.73    2.55    0.51 o
   8   3   3    0.15   -0.14    0.45 <
  -9   4   3    0.19    0.45    0.14 o
  -8   4   3    0.52    0.73    0.09 o
  -7   4   3    3.80    2.29    1.64 <
  -6   4   3    3.42    2.76    0.09 o
  -5   4   3    4.08    3.17    1.85 <
  -4   4   3    3.85    8.93    1.42 o
  -3   4   3  138.10  181.29    4.02 o
  -2   4   3    3.52    4.13    2.30 <
   0   4   3   21.43   11.12    2.86 o
   1   4   3  177.06  266.31   15.64 o
   2   4   3  158.21  196.52   13.44 o
   3   4   3   27.69   23.55    1.46 o
   4   4   3   24.72   21.29    2.02 o
   5   4   3   11.04   10.79    2.27 o
   6   4   3   12.18   12.16    2.16 o
   7   4   3    3.37    5.59    0.42 o
   8   4   3    0.19    0.91    0.32 <
  -8   5   3    0.14    0.23    0.09 <
  -7   5   3    0.29    0.41    0.05 o
  -6   5   3    1.11    5.49    1.28 o
  -5   5   3    0.17    5.81    4.13 <
  -4   5   3    3.63    3.83    0.99 o
  -3   5   3    6.42    8.35    1.38 o
  -2   5   3    1.70    5.16    3.49 <
   0   5   3  154.92  192.08    6.74 o
   1   5   3  359.60  532.96  114.42 o
   2   5   3   74.01   88.44   10.76 o
   3   5   3    5.77    8.61    0.73 o
   4   5   3    0.00    1.68    0.86 <
   5   5   3    0.28    1.82    0.50 o
   6   5   3    9.54    8.39    1.32 o
   7   5   3    1.74    1.29    0.60 <
   8   5   3    0.08    0.41    0.18 <
  -8   6   3    0.44    0.09    0.18 <
  -7   6   3    0.61    1.50    0.14 o
  -6   6   3    3.00    4.14    0.14 o
  -5   6   3    0.33    0.36    0.14 <
  -4   6   3    1.37    1.20    0.05 o
  -3   6   3    0.22    0.82    0.36 <
  -2   6   3    4.66    3.89    0.29 o
   0   6   3   44.79   51.16   11.27 o
   1   6   3   38.42   39.45    5.52 o
   2   6   3   19.91   23.39    0.84 o
   3   6   3   43.56   40.67    4.48 o
   4   6   3    0.05    3.17    2.31 <
   5   6   3    6.23    4.94    0.96 o
   6   6   3    0.12    0.41    0.23 <
   7   6   3    0.31    0.23    0.36 <
   8   6   3    0.25    0.00    0.09 <
  -8   7   3    0.09    0.23    0.09 <
  -7   7   3    1.60    1.93    0.18 o
  -6   7   3    0.00    0.05    0.05 <
  -5   7   3    0.39    4.86    1.68 <
  -4   7   3    4.97    7.46    1.43 o
  -3   7   3    4.72    2.57    2.00 <
  -2   7   3    8.48    6.66    1.09 o
   0   7   3   16.71    6.45    1.08 o
   1   7   3   12.21   10.06    4.35 <
   2   7   3    1.56    1.66    0.78 <
   3   7   3   85.72   89.22    8.09 o
   4   7   3    0.55   -0.14    0.36 <
   5   7   3    2.16    4.39    0.83 o
   6   7   3    0.07    0.41    0.27 <
   7   7   3    0.07   -0.23    0.14 <
   8   7   3    0.15    0.45    0.09 o
  -7   8   3    0.44    1.27    0.59 <
  -6   8   3    2.75    3.66    0.23 o
  -4   8   3    0.03    1.40    1.27 <
  -3   8   3    2.05    2.40    0.09 o
  -2   8   3    7.31    7.07    1.61 o
   0   8   3   44.20   51.19   10.61 o
   1   8   3    1.99   12.32    4.63 <
   2   8   3    4.82    3.33    0.86 o
   3   8   3   11.08    8.62    1.70 o
   4   8   3    3.99    4.93    0.28 o
   5   8   3    0.12    1.09    0.68 <
   6   8   3    0.00    0.32    0.14 <
  -7   9   3    0.07    0.23    0.18 <
  -6   9   3    0.01    0.27    0.09 o
  -5   9   3    6.60    6.10    0.29 o
  -4   9   3    0.41    0.91    0.09 o
  -3   9   3    2.00    1.38    0.97 <
  -2   9   3   28.15   19.94    0.62 o
   0   9   3    3.37    8.34    3.23 <
   1   9   3    3.63    5.82    1.13 o
   2   9   3    7.02    5.70    1.21 o
   3   9   3    5.18    9.63    1.28 o
   4   9   3    0.31    0.45    0.23 <
   5   9   3    0.19    0.50    0.14 o
   6   9   3    0.08    0.27    0.14 <
   7   9   3    0.06    0.27    0.23 <
  -6  10   3    0.35    0.50    0.09 o
  -5  10   3    0.20    0.14    0.14 <
  -4  10   3    5.14    2.55    0.94 <
  -3  10   3    0.93    2.24    1.37 <
   0  10   3    0.35    0.77    0.36 <
   1  10   3    7.90    9.55    3.05 o
   2  10   3   10.43   10.56    2.81 o
   3  10   3    1.09    5.39    1.46 o
   4  10   3    0.26    0.27    0.14 <
   5  10   3    0.11    0.00    0.14 <
  -5  11   3    1.93    1.38    0.18 o
  -4  11   3    0.89    3.79    2.60 <
  -3  11   3    0.49    1.05    0.14 o
   0  11   3    0.10    0.14    0.05 o
   1  11   3    3.46    2.38    0.65 o
   2  11   3    0.40    0.23    0.05 o
   3  11   3   10.52    6.60    1.61 o
   4  11   3    0.09    0.14    0.05 o
  -4  12   3    0.41    0.86    0.14 o
  -3  12   3    0.51    0.64    0.18 o
   0  12   3    0.44    0.18    0.09 <
   1  12   3    0.55    1.05    0.77 <
   2  12   3    1.77    2.07    0.46 o
   3  12   3    1.45    0.55    0.23 <
   4  12   3    1.81    0.96    0.14 o
  -3  13   3    0.82    0.27    0.09 o
   0  13   3    1.75    0.46    0.28 <
   2  13   3    0.06    0.05    0.05 <
   0   0   4    4.20    2.08    0.41 o
   2   0   4    2.16    3.36    0.99 o
   4   0   4   11.40    8.79    0.83 o
   6   0   4   12.97   11.29    0.97 o
   8   0   4    1.67    6.42    0.83 o
  -9   1   4    0.01    0.54    0.18 o
  -7   1   4    0.54   -0.18    0.32 <
  -6   1   4   13.21    8.12    0.77 o
   0   1   4    2.43    5.75    2.66 <
   1   1   4   83.86   85.06   10.22 o
   2   1   4  150.98  210.09   21.31 o
   3   1   4   58.91   74.74   13.93 o
   4   1   4    0.31    0.50    0.14 o
   5   1   4    1.49    2.30    0.69 o
   6   1   4   12.60   17.08    2.13 o
   7   1   4    0.19    0.27    0.14 <
   8   1   4    0.70    1.32    0.32 o
   9   1   4    0.02    0.00    0.36 <
  -9   2   4    0.72    0.41    0.14 <
  -8   2   4    0.87    0.64    0.23 <
  -7   2   4   17.71   15.68    0.93 o
  -6   2   4    5.16    3.76    0.71 o
  -5   2   4    0.19    0.32    0.27 <
  -2   2   4   25.37   21.33    2.26 o
   0   2   4   15.08   35.92    3.79 o
   1   2   4    5.68   13.04    2.50 o
   2   2   4   31.52  101.94   18.41 o
   3   2   4  105.49  102.91   11.40 o
   4   2   4    0.47    1.60    0.32 o
   5   2   4    1.38    2.62    0.74 o
   6   2   4   20.35   19.02    2.63 o
   7   2   4    1.39    1.65    0.37 o
   8   2   4    1.39    0.92    0.32 <
  -9   3   4    0.19   -0.14    0.23 <
  -8   3   4    1.15    2.47    1.01 <
  -7   3   4    1.16    2.10    0.23 o
  -6   3   4    3.26    6.08    3.93 <
  -5   3   4   17.19   16.29    0.96 o
  -4   3   4    0.42    0.73    0.50 <
  -3   3   4  109.29  108.96    1.24 o
  -2   3   4  130.21  125.18    1.31 o
   0   3   4   15.55   10.50    2.00 o
   1   3   4  197.78  259.57   13.65 o
   2   3   4    3.93    8.27    0.92 o
   3   3   4    0.06    3.22    1.59 <
   4   3   4    5.59    2.18    0.48 o
   5   3   4    6.79    4.56    0.63 o
   6   3   4   16.31   18.06    2.44 o
   7   3   4    0.85    1.23    0.23 o
   8   3   4    1.51    1.65    0.46 o
  -9   4   4    0.15    0.45    0.18 <
  -8   4   4    0.00    0.18    0.14 <
  -7   4   4    0.18    0.18    0.14 <
  -6   4   4    0.08    0.77    0.23 o
  -5   4   4   24.05   29.45    0.39 o
  -4   4   4    7.05    6.68    0.25 o
  -3   4   4    3.17    2.93    0.62 o
  -2   4   4    4.81    1.56    0.39 o
   0   4   4  134.67   59.53   16.80 o
   1   4   4    3.99   10.70    1.21 o
   2   4   4  104.43   93.58   10.75 o
   3   4   4    0.45    0.73    0.18 o
   4   4   4    7.49    9.89    1.08 o
   5   4   4    2.43    3.44    0.79 o
   6   4   4   26.09   33.75    6.12 o
   7   4   4    0.60    1.05    0.27 o
   8   4   4    2.29    4.61    0.78 o
  -8   5   4    2.63    3.97    0.46 o
  -7   5   4    0.14    0.14    0.14 <
  -6   5   4    0.24    0.59    0.23 <
  -5   5   4    0.78    2.97    0.41 o
  -4   5   4   44.17   45.08    1.29 o
  -3   5   4    5.57    5.87    0.29 o
  -2   5   4  138.06  165.84   18.81 o
   0   5   4   79.21   74.84    7.52 o
   1   5   4  235.27  366.93   46.13 o
   2   5   4   15.04   13.60    1.41 o
   3   5   4    0.40    0.55    0.18 o
   4   5   4   14.37   14.39    2.82 o
   5   5   4   12.33   13.30    3.59 o
   6   5   4    3.15    2.61    0.70 o
   7   5   4    3.73    4.29    1.03 o
  -8   6   4    0.55    0.50    0.18 <
  -7   6   4    0.32    3.09    0.36 o
  -6   6   4    0.20    1.41    1.27 <
  -5   6   4    0.03    0.14    0.14 <
  -4   6   4    1.97   10.87    6.66 <
  -3   6   4    7.18   13.58    0.49 o
  -2   6   4    2.85    1.64    0.94 <
   0   6   4   50.31   64.52   19.37 o
   1   6   4   43.78   27.95    5.24 o
   2   6   4    3.97    2.52    0.52 o
   3   6   4   15.12   18.13    1.48 o
   4   6   4    0.07    0.95    0.36 <
   5   6   4    1.65    2.02    1.01 <
   6   6   4    0.12    0.09    0.09 <
   7   6   4    0.34    0.59    0.27 <
  -7   7   4    0.51    1.18    0.86 <
  -6   7   4    1.25    0.64    0.27 <
  -5   7   4    0.01    0.54    0.27 <
  -4   7   4    2.90    4.38    0.75 o
  -3   7   4    0.27    5.72    1.00 o
  -2   7   4   10.32   10.45    0.40 o
   0   7   4   10.38   10.77    6.15 <
   1   7   4    5.95    6.01    0.58 o
   2   7   4   53.91   53.55    7.13 o
   3   7   4    1.72    3.23    0.83 o
   4   7   4   15.49   20.22    3.36 o
   5   7   4    5.98    4.53    0.95 o
   6   7   4    0.86    2.14    0.41 o
   7   7   4    1.22    0.87    0.41 <
  -7   8   4    0.03    0.18    0.05 o
  -6   8   4    0.65    4.92    3.69 <
  -4   8   4    1.18    0.78    0.27 <
  -3   8   4    0.99    1.33    0.46 <
   0   8   4   90.15  132.66    8.40 o
   1   8   4    4.18    5.63    0.57 o
   2   8   4   13.29   15.67    2.25 o
   3   8   4   11.03    7.69    1.70 o
   4   8   4    7.74    4.26    0.77 o
   5   8   4    0.53    0.64    0.23 <
   6   8   4    0.74    0.32    0.32 <
  -7   9   4    0.02    5.03    0.72 o
  -6   9   4    0.27   -0.18    0.23 <
  -5   9   4    0.02    0.72    0.50 <
  -4   9   4    3.22    4.75    0.88 o
  -3   9   4    0.30    2.54    1.36 <
   0   9   4    0.78    1.78    0.55 o
   1   9   4   37.87   41.94    3.71 o
   2   9   4    0.45    0.41    0.14 <
   3   9   4   23.18   28.28    3.67 o
   4   9   4    0.55    2.96    0.77 o
   5   9   4    0.02    0.50    0.36 <
   6   9   4    0.60    0.41    0.09 o
  -6  10   4    0.17    0.36    0.05 o
  -4  10   4    0.56    0.91    0.14 o
  -3  10   4    0.01    0.18    0.18 <
   0  10   4    0.38    0.45    0.41 <
   1  10   4    0.29    3.45    2.68 <
   2  10   4    8.68   13.27    1.94 o
   3  10   4    4.22    4.17    0.80 o
   4  10   4    0.19   24.00    3.58 o
   5  10   4    0.02    0.09    0.05 <
   6  10   4    0.44    0.00    0.05 <
  -5  11   4    0.54    1.82    0.23 o
  -4  11   4    0.99    0.46    0.14 o
  -3  11   4    0.91    1.37    1.14 <
   0  11   4    1.02    2.70    2.33 <
   1  11   4    5.94    9.64    4.37 <
   2  11   4    0.69    1.05    0.32 o
   3  11   4    0.10    0.41    0.14 <
   4  11   4    0.49    0.55    0.18 o
  -4  12   4    0.21    0.77    0.14 o
  -3  12   4    0.82    0.14    0.09 <
   0  12   4    0.91    0.14    0.05 o
   1  12   4    2.98    3.52    1.07 o
   2  12   4    1.11    0.96    0.14 o
   3  12   4    0.32    0.41    0.14 <
   4  12   4    0.00    0.09    0.09 <
   2  13   4    0.04    0.32    0.18 <
  -1   0   5  116.41   69.05   13.88 o
   1   0   5  211.26  265.52   20.07 o
   3   0   5   26.68   30.00    7.73 o
   5   0   5    9.41    3.94    0.95 o
   7   0   5    4.50    5.97    1.97 o
  -8   1   5    0.79   -0.05    0.27 <
  -1   1   5    7.83    7.15    0.63 o
   0   1   5    0.06    2.99    0.86 o
   1   1   5   38.44   55.45    3.54 o
   2   1   5   11.08   11.18    1.94 o
   3   1   5  179.02  223.69   38.42 o
   4   1   5    0.18    1.45    0.82 <
   5   1   5    2.39    2.65    0.79 o
   6   1   5    2.51    1.95    0.32 o
   7   1   5    1.91    5.57    1.93 <
   8   1   5    0.01    0.86    0.32 <
  -9   2   5    0.46    0.50    0.32 <
  -8   2   5    0.90    0.82    0.23 o
  -7   2   5    1.31    2.11    0.46 o
  -6   2   5    0.35    1.00    1.36 <
  -5   2   5   21.50   19.23    1.71 o
  -4   2   5   10.63   11.74    3.69 o
  -3   2   5   11.67   39.78   15.66 <
  -2   2   5   41.35   36.03    0.43 o
   0   2   5    2.85    3.31    0.77 o
   1   2   5  109.37  130.89    8.30 o
   2   2   5   90.74   92.34    9.25 o
   3   2   5    6.62    5.25    2.58 <
   4   2   5    7.98    8.84    1.09 o
   5   2   5   14.55   12.99    2.24 o
   6   2   5    0.64    3.01    0.50 o
   7   2   5    0.72    1.37    0.41 o
   8   2   5    0.85    1.00    0.18 o
  -9   3   5    0.00   -0.14    0.18 <
  -8   3   5    0.37   -0.36    0.14 <
  -7   3   5    3.00    2.14    0.84 <
  -6   3   5    1.11    1.92    0.18 o
  -5   3   5    5.54    4.22    1.34 o
  -4   3   5    1.75    2.45    0.09 o
  -3   3   5   21.59   34.62    8.68 o
  -2   3   5  132.76   70.50   13.55 o
   0   3   5  118.37  115.97   17.47 o
   1   3   5    7.30    6.78    2.39 <
   2   3   5    3.36    4.96    2.43 <
   3   3   5   18.58   22.97    4.97 o
   4   3   5   26.69   31.17    5.52 o
   5   3   5    4.66    4.32    1.33 o
   6   3   5   14.94   11.16    1.64 o
   7   3   5    0.78    0.91    0.41 <
   8   3   5    0.15    0.73    0.41 <
  -8   4   5    0.07    0.09    0.18 <
  -7   4   5    0.89    0.32    0.18 <
  -6   4   5    3.11    3.35    0.51 o
  -5   4   5    0.03    1.00    0.50 <
  -4   4   5   31.18   68.04    2.39 o
  -3   4   5   56.10   54.49    7.34 o
  -2   4   5    1.15    5.35    3.55 <
   0   4   5   52.60   34.36    5.29 o
   1   4   5   22.22   26.68    6.30 o
   2   4   5    4.56   15.88    6.42 <
   3   4   5    0.83    2.84    1.19 <
   4   4   5    4.55    4.38    1.48 <
   5   4   5    0.66    4.83    1.37 o
   6   4   5    0.29    1.23    0.18 o
   7   4   5    0.25    0.45    0.23 <
   8   4   5    0.43    0.00    0.09 <
  -8   5   5    0.01    0.23    0.05 o
  -7   5   5    0.30   -0.05    0.14 <
  -6   5   5    2.04    4.80    1.61 <
  -5   5   5   13.92   23.09    2.00 o
  -4   5   5   22.03   23.97    0.66 o
  -3   5   5    1.08    4.41    1.84 <
  -2   5   5    1.11    6.94    3.77 <
   0   5   5   85.61   87.44   13.33 o
   1   5   5    5.50    4.58    1.02 o
   2   5   5  103.74  147.95    9.87 o
   3   5   5    5.57    2.61    0.43 o
   4   5   5    9.30    9.83    3.43 <
   5   5   5    2.54    2.83    0.37 o
   6   5   5    2.25    3.19    0.46 o
   7   5   5    3.90    3.22    0.84 o
   8   5   5    0.10   -0.18    0.09 <
  -8   6   5    0.33    0.23    0.14 <
  -7   6   5    0.97    0.91    0.68 <
  -6   6   5    1.19    1.42    0.64 <
  -5   6   5    0.76    1.41    0.14 o
  -4   6   5   24.15   25.11    5.72 o
  -3   6   5    2.91    2.39    1.08 <
  -2   6   5    0.86    1.28    0.18 o
   0   6   5    9.79    5.59    1.53 o
   1   6   5    0.29    2.18    0.86 <
   2   6   5   17.18   14.94    1.51 o
   3   6   5    3.51    4.09    0.80 o
   4   6   5   14.87   12.82    1.96 o
   5   6   5    4.92    5.53    0.61 o
   6   6   5    2.77    1.90    0.23 o
   7   6   5    1.08    0.64    0.18 o
  -8   7   5    0.07   -0.09    0.09 <
  -7   7   5    0.21    0.91    0.18 o
  -6   7   5    0.08    0.14    0.05 o
  -5   7   5    2.04    3.09    1.01 o
  -4   7   5    5.36    3.90    1.24 o
  -3   7   5    7.21    7.24    2.38 o
   0   7   5    3.35    2.26    0.89 <
   1   7   5    0.84    6.22    2.74 <
   2   7   5    2.86    3.60    1.77 <
   3   7   5   33.86   34.59    6.67 o
   4   7   5   10.91   10.35    1.99 o
   5   7   5    0.24    0.41    0.18 <
   6   7   5    0.64    0.55    0.09 o
   7   7   5    0.75    1.14    0.23 o
  -7   8   5    0.68    0.82    0.05 o
  -6   8   5    0.51    2.18    0.64 o
  -5   8   5    3.46    7.22    0.37 o
  -4   8   5    3.87    6.19    1.45 o
  -3   8   5   12.97   12.87    3.75 o
   0   8   5   36.86   36.73    9.39 o
   1   8   5    6.51    5.46    1.26 o
   2   8   5    2.52    3.11    0.79 o
   3   8   5    0.23    2.18    0.82 <
   4   8   5    5.23    4.64    1.09 o
   5   8   5    0.42    1.36    0.41 o
   6   8   5    1.54    1.37    1.01 <
  -7   9   5    0.00    0.18    0.14 <
  -6   9   5    0.67    0.86    0.14 o
  -5   9   5    8.26   10.88    2.46 o
  -4   9   5   13.90   14.09    4.03 o
  -3   9   5    0.74    6.61    5.75 <
   0   9   5    0.01    5.39    4.39 <
   1   9   5   19.40   19.37    4.09 o
   2   9   5   87.94  140.55   28.80 o
   3   9   5    1.35    0.82    0.32 <
   4   9   5    2.95    1.39    0.37 o
   5   9   5    0.00    0.00    0.05 <
  -6  10   5    0.02    0.41    0.18 <
  -5  10   5    1.42    1.28    1.01 <
  -4  10   5    8.10   10.10    2.50 o
  -3  10   5    0.22    1.36    0.23 o
   0  10   5    4.39    5.93    2.45 <
   1  10   5    6.98    8.16    2.69 o
   2  10   5    1.48    2.52    0.69 o
   3  10   5    0.00    1.95    1.45 <
   4  10   5    0.17    0.14    0.05 o
   5  10   5    0.45    0.36    0.09 o
  -5  11   5    0.07    1.00    0.59 <
  -4  11   5    4.60    3.93    0.61 o
  -3  11   5    0.24    0.50    0.23 <
   0  11   5    2.84    1.25    0.65 <
   1  11   5    2.78    8.24    5.09 <
   2  11   5    1.70    0.55    0.23 <
   3  11   5    0.41    0.27    0.14 <
   4  11   5    0.09    0.05    0.05 <
  -4  12   5    0.43    1.04    0.73 <
  -3  12   5    0.18    0.77    0.23 o
   0  12   5    0.68    0.46    0.27 <
   1  12   5    3.10    4.08    0.74 o
   2  12   5    0.44    0.64    0.27 <
   0   0   6   68.07   61.83   11.69 o
   2   0   6    5.51   11.08    2.02 o
   4   0   6    0.09    2.22    1.09 <
   6   0   6   15.46    9.20    2.11 o
   8   0   6    0.15    0.32    0.09 o
  -1   1   6    5.18    4.81    0.99 o
   0   1   6   26.91   24.83    2.33 o
   1   1   6   11.49   18.48    3.24 o
   2   1   6    6.27   10.09    3.58 <
   3   1   6    6.38    5.27    0.69 o
   4   1   6    1.53    4.34    0.78 o
   5   1   6    0.21    1.77    0.91 <
   6   1   6    0.06    0.41    0.27 <
   7   1   6    7.92    5.78    1.40 o
   8   1   6    0.05    0.09    0.14 <
  -9   2   6    0.02    0.27    0.09 o
  -8   2   6    1.04    0.82    0.14 o
  -7   2   6    0.02    3.08    3.13 <
  -6   2   6    6.05    9.66    3.30 <
  -5   2   6   10.71   10.46    4.22 <
  -4   2   6    3.76    5.92    2.70 <
  -3   2   6   26.01   22.46    2.99 o
  -2   2   6   63.53   84.14    0.64 o
  -1   2   6   24.22   29.77    0.87 o
   0   2   6    2.30    2.69    0.90 <
   1   2   6  104.38  140.75   12.59 o
   2   2   6    1.28    2.26    0.55 o
   3   2   6   11.47   23.37    7.94 <
   4   2   6    4.11    2.80    0.33 o
   5   2   6    0.57    1.32    0.46 <
   6   2   6    0.78    0.82    0.18 o
   7   2   6    0.40    0.09    0.14 <
   8   2   6    0.07    0.45    0.27 <
  -8   3   6    0.34    0.95    0.82 <
  -7   3   6    1.54    0.92    0.09 o
  -6   3   6    1.47    2.48    0.28 o
  -5   3   6   13.87   19.57    8.50 <
  -4   3   6   46.14   45.49    7.30 o
  -3   3   6   16.09   14.67    0.38 o
  -2   3   6   72.17   67.14    0.73 o
   0   3   6   39.21   22.79    2.56 o
   1   3   6   18.17   25.62    4.57 o
   2   3   6    8.89   11.30    1.83 o
   3   3   6    3.23    3.91    0.71 o
   4   3   6   15.74   12.52    1.64 o
   5   3   6    9.96   10.38    1.74 o
   6   3   6    3.61    3.65    0.84 o
   7   3   6    3.83    2.05    0.42 o
  -8   4   6    0.10    1.00    0.27 o
  -7   4   6    1.01    0.23    0.09 <
  -6   4   6    0.37    2.36    0.64 o
  -5   4   6   38.36   33.21    1.63 o
  -4   4   6   33.36   28.36    6.31 o
  -3   4   6    1.64    2.22    0.37 o
  -2   4   6    1.97    1.72    0.33 o
   0   4   6   30.40   49.47    5.48 o
   1   4   6    7.26   12.83    4.19 o
   2   4   6    4.37    4.50    0.91 o
   3   4   6    4.97    6.19    0.62 o
   4   4   6   43.36   43.87    3.10 o
   5   4   6    1.54    3.49    0.78 o
   6   4   6    6.84    4.50    0.96 o
   7   4   6    0.01    0.27    0.09 o
   8   4   6    0.33    0.36    0.09 o
  -8   5   6    0.01    0.27    0.09 o
  -7   5   6    0.55    1.27    0.32 o
  -6   5   6    0.34    2.82    1.91 <
  -5   5   6   15.72   11.95    5.48 <
  -4   5   6   43.68   47.98   13.49 o
  -3   5   6    5.97    7.45    3.00 <
   0   5   6   14.29    9.84    1.18 o
   1   5   6    4.36    3.97    0.38 o
   2   5   6    1.09    0.55    0.18 o
   3   5   6   11.31    8.08    1.83 o
   4   5   6    1.21    1.93    0.32 o
   5   5   6    1.70    2.30    0.28 o
   6   5   6    7.10    8.72    1.05 o
   7   5   6    3.89    6.01    1.17 o
  -8   6   6    0.14    0.68    0.09 o
  -7   6   6    0.64    0.82    0.36 <
  -6   6   6    0.68    1.28    0.82 <
  -5   6   6   17.18   52.25   27.58 <
  -4   6   6   31.21   17.74    8.21 <
  -3   6   6    0.54    4.78    3.55 <
   0   6   6    1.99    4.83    1.21 o
   1   6   6   10.58   11.48    1.17 o
   2   6   6    0.14    1.27    0.77 <
   3   6   6   31.81   47.29    1.11 o
   4   6   6    6.79    5.01    1.01 o
   5   6   6    1.12    1.97    0.46 o
   6   6   6    0.74    0.73    0.36 <
   7   6   6    0.61    0.32    0.18 <
  -7   7   6    0.10    0.18    0.09 <
  -6   7   6    0.75    0.50    0.27 <
  -5   7   6   13.67   15.11    1.66 o
  -4   7   6    8.88    6.66    2.25 <
  -3   7   6    1.50    2.02    0.28 o
   0   7   6    3.75    3.49    1.32 <
   1   7   6    6.17    7.00    1.06 o
   2   7   6    5.52   12.49    3.11 o
   3   7   6    0.69    4.15    1.41 <
   4   7   6    1.75    1.98    0.78 <
   5   7   6    3.98    5.38    1.17 o
   6   7   6    3.33    3.07    0.42 o
   7   7   6    0.07   -0.05    0.09 <
  -7   8   6    0.59    0.23    0.09 <
  -6   8   6    1.92    4.37    2.94 <
  -5   8   6    1.07    3.47    1.51 <
  -4   8   6    8.46    8.74    1.99 o
  -3   8   6    7.11   16.78    1.88 o
   0   8   6   16.45   20.54    6.08 o
   1   8   6    0.58    0.91    0.18 o
   2   8   6    4.30    2.12    0.47 o
   3   8   6    4.43    3.86    0.38 o
   4   8   6    1.69    1.33    0.41 o
   5   8   6    0.05    0.27    0.18 <
   6   8   6    2.96    1.02    0.28 o
  -6   9   6    0.13    0.18    0.09 <
  -5   9   6    0.04    1.90    1.45 <
  -4   9   6    1.62    1.79    1.24 <
  -3   9   6    0.70    0.82    0.18 o
   0   9   6    0.07    1.13    0.59 <
   1   9   6    0.02    0.95    0.32 <
   2   9   6   12.01   28.36    8.69 o
   3   9   6   21.63   27.14    3.92 o
   4   9   6    0.96    1.92    0.46 o
   5   9   6    0.56    0.50    0.18 <
  -6  10   6    0.16    0.91    0.54 <
  -5  10   6    2.33    2.35    0.09 o
  -4  10   6    0.33    0.05    0.14 <
  -3  10   6    0.02    0.86    0.18 o
   0  10   6   10.34    4.48    1.57 <
   1  10   6    2.27    1.43    0.42 o
   2  10   6    0.07    0.95    0.32 <
   3  10   6    0.10    0.18    0.09 <
   4  10   6    3.07    3.06    0.88 o
  -5  11   6    0.29    1.00    0.36 <
  -4  11   6    0.08    3.35    1.50 <
  -3  11   6    0.00    0.14    0.32 <
   0  11   6    0.06    9.47    9.02 <
   1  11   6    0.27    0.82    0.36 <
   2  11   6    4.39    3.89    0.61 o
   3  11   6    0.17    0.23    0.14 <
   4  11   6    0.40    0.73    0.27 <
  -4  12   6    0.19    0.54    0.09 o
  -1  12   6    0.72    0.00    0.36 <
   0  12   6    0.11    0.00    0.05 <
   1  12   6    2.17    0.87    0.28 o
   2  12   6    0.54    0.45    0.18 <
   3  12   6    0.06    0.41    0.18 <
  -1   0   7  376.75  381.84   86.32 o
   1   0   7   70.39   72.89    8.30 o
   3   0   7    3.01   11.48    5.27 <
   5   0   7   13.45   14.76    3.37 o
   7   0   7    0.14    0.09    0.14 <
  -1   1   7   25.45   15.97    2.15 o
   0   1   7   82.17   98.16    6.59 o
   1   1   7   72.65   74.65    5.54 o
   2   1   7   77.11   75.89    4.66 o
   3   1   7   15.22   13.00    0.64 o
   4   1   7    3.01    9.65    3.70 <
   5   1   7    0.65    5.06    2.51 <
   6   1   7    1.76    1.89    0.23 o
   7   1   7    0.02    0.09    0.14 <
  -8   2   7    0.18   -0.27    0.32 <
  -7   2   7    0.06   -0.05    0.32 <
  -6   2   7    8.15    5.10    0.63 o
  -5   2   7    1.54    1.38    0.60 <
  -4   2   7    5.01    3.88    0.62 o
  -1   2   7   34.34   30.99    3.40 o
   0   2   7   98.94  132.30   10.09 o
   1   2   7    7.69    8.72    0.86 o
   2   2   7   19.44   13.36    1.86 o
   3   2   7    1.06    1.70    0.41 o
   4   2   7   48.70   41.55    5.36 o
   5   2   7    2.05    1.29    0.37 o
   6   2   7    3.85    3.74    0.75 o
   7   2   7    0.98    0.27    0.14 <
   8   2   7    0.19    0.23    0.23 <
  -8   3   7    0.55    0.68    0.18 o
  -7   3   7    3.94    3.74    1.96 <
  -6   3   7    0.72    0.05    0.27 <
  -5   3   7   10.01    8.19    1.54 o
  -4   3   7    1.80    6.61    4.16 <
  -3   3   7   13.44    9.44    0.37 o
  -2   3   7   61.68   12.76    6.12 <
  -1   3   7    1.22    1.71    0.74 <
   0   3   7   22.11   21.86    3.68 o
   1   3   7    5.98    8.78    1.62 o
   2   3   7    1.08    1.47    0.74 <
   3   3   7   16.03   26.36    8.80 <
   4   3   7    3.68    4.61    1.18 o
   5   3   7   27.24   28.41    4.64 o
   6   3   7    1.68    1.88    0.37 o
   7   3   7    0.50    0.05    0.09 <
   8   3   7    0.26   -0.09    0.36 <
  -8   4   7    0.02    0.14    0.18 <
  -7   4   7    0.36    1.36    0.45 <
  -6   4   7    6.15    7.20    1.14 o
  -5   4   7    9.28    5.07    0.89 o
  -4   4   7   27.29   31.29    4.74 o
  -3   4   7    3.53    2.88    0.71 o
   0   4   7   10.10   11.58    2.87 o
   1   4   7    0.10    4.45    1.54 <
   2   4   7    7.00    4.57    0.64 o
   3   4   7   48.80   56.72    4.62 o
   4   4   7    7.32    6.90    0.63 o
   5   4   7    1.45    2.11    0.73 <
   6   4   7    0.21    0.82    0.23 o
   7   4   7    2.84    2.73    0.65 o
  -8   5   7    0.04    1.45    1.40 <
  -7   5   7    2.67    4.11    0.37 o
  -6   5   7    0.07    0.41    0.09 o
  -5   5   7    0.67    4.19    2.19 <
  -4   5   7    6.83   11.32    6.09 <
  -3   5   7    0.49    2.73    0.91 <
   0   5   7   17.39   13.01    1.90 o
   1   5   7    0.63    6.98    3.65 <
   2   5   7   17.41   18.33    3.12 o
   3   5   7    4.51    6.07    0.62 o
   4   5   7   10.24    9.48    2.18 o
   5   5   7    0.39    0.91    0.27 o
   6   5   7    0.52    1.59    0.45 o
   7   5   7    0.00    0.18    0.09 <
  -8   6   7    0.27    0.00    0.05 <
  -7   6   7    2.44    2.95    1.15 <
  -6   6   7    0.26    1.00    0.86 <
  -5   6   7   22.78   41.10    2.15 o
  -4   6   7    1.75    1.34    0.69 <
  -3   6   7   14.89   13.12    0.36 o
   0   6   7   11.38    7.90    0.82 o
   1   6   7   18.63   11.68    1.41 o
   2   6   7    5.24    6.55    1.53 o
   3   6   7    8.63   10.75    2.06 o
   4   6   7   28.49   37.66    9.53 o
   5   6   7    2.51    2.73    0.79 o
   6   6   7    3.73    6.24    1.26 o
  -7   7   7    1.13    0.91    0.09 o
  -6   7   7    0.20    0.68    0.14 o
  -5   7   7    7.24    7.82    0.72 o
  -4   7   7    0.18    1.09    0.14 o
  -3   7   7   13.48   16.08    0.46 o
   0   7   7    3.80    6.22    0.52 o
   1   7   7    4.80    5.94    1.09 o
   2   7   7    4.23    6.13    1.04 o
   3   7   7   24.72   36.49    5.32 o
   4   7   7    0.38    0.41    0.18 <
   5   7   7    1.45    1.37    0.55 <
   6   7   7    0.04    0.14    0.05 o
  -7   8   7    0.02    0.27    0.09 o
  -6   8   7    0.21    0.91    0.54 <
  -5   8   7    1.15    4.71    0.55 o
  -4   8   7    9.47   10.74    1.85 o
  -3   8   7    4.16    2.54    0.52 o
   0   8   7   18.39   10.20    1.37 o
   1   8   7    0.65    1.41    0.27 o
   2   8   7    1.04    0.78    0.32 <
   3   8   7    1.20    0.87    0.27 o
   4   8   7    1.42    0.50    0.27 <
   5   8   7    0.30    0.14    0.05 o
   6   8   7    1.30    1.14    0.05 o
  -6   9   7    0.01    0.27    0.36 <
  -5   9   7    0.73    0.73    0.59 <
  -4   9   7    2.68    4.07    0.60 o
  -3   9   7    0.69    0.82    0.14 o
   0   9   7    1.60    1.24    0.60 <
   1   9   7    6.21    5.97    0.86 o
   2   9   7    4.05    4.26    1.92 <
   3   9   7    0.33    0.27    0.23 <
   4   9   7    1.18    0.59    0.23 <
   5   9   7    0.64    0.41    0.23 <
  -5  10   7    0.29    0.54    0.27 <
  -4  10   7    1.89    2.11    0.09 o
  -3  10   7    6.30    5.32    0.28 o
   0  10   7    6.73    3.82    0.29 o
   1  10   7    8.85    7.76    0.87 o
   2  10   7    0.00    4.12    2.72 <
   3  10   7    1.69    5.05    2.98 <
   4  10   7    0.42    0.18    0.14 <
  -4  11   7    0.13    1.63    0.63 <
   0  11   7    2.66    1.57    1.29 <
   1  11   7    3.42    1.72    0.51 o
   2  11   7    0.23    0.18    0.09 <
   3  11   7    0.76    5.33    4.28 <
   0  12   7    1.11    0.46    0.32 <
   1  12   7    0.68    0.36    0.18 <
   0   0   8    1.32    2.96    0.37 o
   2   0   8   41.34   45.08    5.25 o
   4   0   8    0.33    0.73    0.32 <
   6   0   8    5.96    6.09    1.43 o
  -1   1   8    6.20    8.17    0.54 o
   0   1   8    3.00    3.59    0.57 o
   1   1   8    4.65    5.40    1.35 o
   2   1   8    1.90    1.95    0.79 <
   3   1   8    8.39    7.74    1.39 o
   4   1   8   19.64   16.94    4.15 o
   5   1   8    0.80    0.82    0.27 <
   6   1   8    0.21    0.45    0.14 o
   7   1   8    0.23    0.05    0.09 <
   8   1   8    0.00    0.77    0.36 <
  -8   2   8    0.08    0.05    0.41 <
  -1   2   8   45.93   45.46    7.13 o
   0   2   8    0.72    2.06    0.73 <
   1   2   8   68.84   78.92    6.24 o
   2   2   8   15.42   15.89    1.66 o
   3   2   8    1.30    2.34    0.46 o
   4   2   8    3.47    5.49    1.03 o
   5   2   8   50.54   73.52   16.81 o
   6   2   8    0.07   -0.05    0.09 <
   7   2   8    0.03    0.09    0.09 <
   8   2   8    0.19    0.14    0.68 <
  -8   3   8    0.41    0.09    0.14 <
  -7   3   8    0.55    0.77    0.09 o
  -6   3   8    1.18    1.28    0.09 o
  -5   3   8    7.15    5.75    0.53 o
  -4   3   8   17.43   24.35    9.12 <
  -3   3   8    1.72    1.85    0.42 o
  -1   3   8   21.89   18.53    0.29 o
   0   3   8   12.35   11.51    4.13 <
   1   3   8    0.22    2.36    1.00 <
   2   3   8    0.19    3.13    1.95 <
   3   3   8    8.81    4.81    1.39 o
   4   3   8   21.84   20.79    3.48 o
   5   3   8   12.59    8.29    2.86 <
   6   3   8    0.19    0.91    0.27 o
   7   3   8    0.06    0.27    0.32 <
  -8   4   8    0.00    1.04    0.50 <
  -7   4   8    0.48    0.59    0.45 <
  -6   4   8    0.76    1.28    0.09 o
  -5   4   8    2.05    2.22    0.42 o
  -4   4   8   12.73   13.58    1.22 o
  -3   4   8    3.15    2.48    0.56 o
  -1   4   8    2.84    4.17    1.03 o
   0   4   8    6.62    3.57    0.64 o
   1   4   8   25.30   24.82    2.77 o
   2   4   8    0.09    0.77    0.23 o
   3   4   8   23.73   28.94    3.56 o
   4   4   8    0.09    1.18    0.36 o
   5   4   8    0.39    0.86    0.59 <
   6   4   8    0.10    0.41    0.14 <
   7   4   8    0.10    0.14    0.05 o
  -8   5   8    0.17    0.63    0.50 <
  -7   5   8    1.52    0.87    0.23 o
  -6   5   8    0.42    0.77    0.05 o
  -5   5   8    0.02    3.85    3.35 <
  -4   5   8    5.64    8.49    4.01 <
  -3   5   8    0.82    3.56    0.69 o
  -1   5   8   11.22   10.38    0.81 o
   0   5   8    7.02    8.75    2.74 o
   1   5   8    0.18    3.00    1.54 <
   2   5   8    1.48    1.15    0.32 o
   3   5   8    4.66    6.26    1.18 o
   4   5   8    0.60    1.59    0.87 <
   5   5   8    0.77    2.69    1.14 <
   6   5   8    0.64    0.96    0.64 <
   7   5   8    0.06    0.09    0.09 <
  -7   6   8    2.79    1.99    0.14 o
  -6   6   8    0.84    1.60    1.32 <
  -5   6   8    6.59    3.68    0.48 o
  -4   6   8    7.38   10.28    4.15 <
  -3   6   8   16.19   18.12    5.10 o
   0   6   8    3.96    4.67    1.42 o
   1   6   8   19.66   20.30    3.40 o
   2   6   8    0.01    3.08    1.31 <
   3   6   8    0.99    1.97    0.55 o
   4   6   8    0.73    0.36    0.09 o
   5   6   8    0.07    0.32    0.09 o
   6   6   8    0.60    3.00    2.68 <
  -7   7   8    0.98    0.96    0.09 o
  -6   7   8    1.55    1.47    0.27 o
  -5   7   8    0.06    0.36    0.36 <
  -4   7   8    2.81    3.15    0.84 o
  -3   7   8    3.46    5.56    0.89 o
   0   7   8    6.67    7.72    3.81 <
   1   7   8    3.52    3.80    0.56 o
   2   7   8   27.07   34.31    4.85 o
   3   7   8    2.13    4.80    3.14 <
   4   7   8    2.89    2.88    0.42 o
   5   7   8    0.06    0.23    0.14 <
   6   7   8    0.02    0.23    0.14 <
  -6   8   8    0.38    2.09    0.55 o
  -5   8   8    0.76    0.91    0.05 o
  -4   8   8    6.70    5.25    0.19 o
  -3   8   8    1.28    2.61    0.27 o
   0   8   8    3.81    3.00    1.31 <
   1   8   8   14.18   11.95    2.34 o
   2   8   8    0.64    0.05    0.18 <
   3   8   8    0.26    0.77    0.50 <
   4   8   8    0.25    0.27    0.09 o
   5   8   8    0.00    0.09    0.05 <
  -6   9   8    0.23    1.27    0.50 <
  -5   9   8    0.27    0.50    0.23 <
  -4   9   8    0.79    4.06    0.59 o
   0   9   8    0.37    0.23    0.05 o
   1   9   8    0.92    0.32    0.09 o
   2   9   8    6.10    6.28    2.23 <
   3   9   8    0.01    1.72    1.22 <
   4   9   8    0.20    0.18    0.09 <
   5   9   8    0.01    0.63    0.18 o
  -5  10   8    0.05    0.27    0.05 o
  -4  10   8    3.87    5.08    0.75 o
   0  10   8    0.26    0.14    0.09 <
   1  10   8   10.22    9.62    1.71 o
   2  10   8    0.05    0.50    0.32 <
   3  10   8    7.08    7.81    2.29 o
   4  10   8    0.06    0.00    0.14 <
  -4  11   8    0.48    1.05    1.00 <
  -1  11   8    0.04    0.00    0.27 <
   0  11   8    0.21    0.59    0.27 <
   1  11   8    0.12    0.09    0.05 <
   2  11   8    0.19    0.64    0.32 <
   1  12   8    0.01    0.14    0.14 <
  -1   0   9   57.94   27.69    7.70 o
   1   0   9   45.22   55.22    2.13 o
   3   0   9   19.81   24.88    4.13 o
   5   0   9   64.42   79.73   12.73 o
   7   0   9    0.34    0.32    0.09 o
  -2   1   9    2.55    3.36    0.79 o
  -1   1   9    0.31    0.64    0.23 <
   0   1   9    2.85    4.32    0.56 o
   1   1   9    0.54    1.19    0.32 o
   2   1   9   56.85   53.79    2.85 o
   3   1   9    0.27    1.27    0.18 o
   4   1   9   15.84   16.26    1.14 o
   5   1   9    1.75    1.66    0.37 o
   6   1   9    0.00    0.27    0.09 o
   7   1   9    0.11    0.14    0.05 o
  -2   2   9    3.79    3.46    1.09 o
  -1   2   9   51.11   35.81    5.69 o
   0   2   9    0.95    2.29    1.47 <
   1   2   9    6.42    5.71    0.44 o
   2   2   9    2.12    5.52    0.84 o
   3   2   9    3.48    4.09    1.13 o
   4   2   9    2.01    3.60    0.88 o
   5   2   9    3.13    2.47    0.70 o
   6   2   9    9.94   11.56    1.61 o
   7   2   9    0.30    0.45    0.18 <
  -8   3   9    0.68    0.59    0.27 <
  -7   3   9    1.17    1.14    0.37 o
  -6   3   9    2.58    1.76    0.14 o
  -5   3   9    1.17    2.56    0.69 o
  -4   3   9   12.20    7.78    0.66 o
  -3   3   9    0.53    0.87    0.32 <
  -1   3   9    9.04   10.95    2.80 o
   0   3   9    7.70    2.47    0.59 o
   1   3   9    0.07    5.58    2.45 <
   2   3   9   13.15   10.83    1.75 o
   3   3   9    2.89    5.08    0.70 o
   4   3   9    1.03    3.89    1.33 <
   5   3   9    3.78    3.27    0.75 o
   6   3   9    1.91    0.83    0.28 <
   7   3   9    0.00    0.45    0.23 <
  -8   4   9    0.06    0.09    0.23 <
  -7   4   9    2.17    3.27    0.55 o
  -6   4   9    1.21    3.48    2.06 <
  -5   4   9    0.64    1.05    0.41 <
  -4   4   9   12.27   10.63    2.02 o
  -3   4   9    2.74    1.49    0.42 o
  -1   4   9    2.63    6.34    0.33 o
   0   4   9    0.32    0.32    0.18 <
   1   4   9   25.61   22.32    3.19 o
   2   4   9   28.45   40.10    3.74 o
   3   4   9   20.45   27.38    3.12 o
   4   4   9    3.70    5.67    2.86 <
   5   4   9    0.34    3.54    2.32 <
   6   4   9    0.06    0.27    0.18 <
  -7   5   9    0.32    0.41    0.09 o
  -6   5   9    0.04    1.77    1.27 <
  -5   5   9    4.98    4.11    0.57 o
  -4   5   9    0.11    1.22    0.54 <
  -1   5   9    4.30    2.89    0.47 o
   0   5   9   12.34    5.26    1.38 o
   1   5   9    3.85    6.46    2.12 o
   2   5   9   20.72   20.05    2.65 o
   3   5   9    0.91    2.65    1.64 <
   4   5   9    8.05    5.13    1.02 o
   5   5   9    1.95    0.87    0.18 o
   6   5   9    0.08    0.09    0.05 <
  -7   6   9    0.72    0.64    0.05 o
  -6   6   9    1.38    3.57    1.60 <
  -5   6   9    0.50    0.68    0.05 o
  -4   6   9    1.23    2.24    0.46 o
  -3   6   9    1.19    2.20    0.27 o
  -1   6   9   30.63   25.44    0.87 o
   0   6   9    1.36    1.97    0.28 o
   1   6   9   15.70   19.68    3.95 o
   2   6   9    4.89    3.60    0.62 o
   3   6   9    1.55    3.03    0.96 o
   4   6   9    1.74    2.67    1.88 <
   5   6   9    0.11    0.05    0.09 <
   6   6   9    0.27    0.41    0.14 <
  -7   7   9    0.83    0.41    0.05 o
  -6   7   9    0.01   -0.05    0.09 <
  -5   7   9    0.92    2.10    0.46 o
  -4   7   9    0.01    0.36    0.27 <
  -3   7   9    1.16    0.73    0.18 o
   0   7   9    0.67    1.23    0.46 <
   1   7   9    5.12    3.70    0.85 o
   2   7   9   16.60   13.84    4.96 <
   3   7   9    4.17    6.00    1.31 o
   4   7   9    0.14    0.23    0.18 <
   5   7   9    1.42    0.60    0.27 <
  -6   8   9    0.18    0.23    0.05 o
  -5   8   9    0.03    0.91    0.36 <
  -4   8   9    4.83    5.50    2.07 <
   0   8   9    0.53    0.27    0.14 <
   1   8   9    0.28    0.45    0.14 o
   2   8   9    0.10    0.14    0.05 o
   3   8   9    1.01    0.59    0.32 <
   4   8   9    0.47    0.32    0.27 <
   5   8   9    0.49    0.05    0.09 <
  -5   9   9    0.03    0.50    0.50 <
  -4   9   9    3.34    2.23    0.37 o
   0   9   9    4.16    2.20    1.41 <
   1   9   9    1.10    0.87    0.64 <
   2   9   9    0.02    0.09    0.09 <
   3   9   9    0.10    0.05    0.05 <
   4   9   9    0.20    0.23    0.09 <
  -4  10   9    0.30    1.32    0.91 <
  -1  10   9    0.74    0.00    0.59 <
   0  10   9    0.53    0.45    0.14 o
   1  10   9    3.11    0.97    0.37 <
   2  10   9    0.12    0.50    0.36 <
   3  10   9    0.40    0.41    0.23 <
  -1  11   9    1.24    0.00    0.23 <
   0  11   9    0.10    0.32    0.09 o
   1  11   9    0.29    0.41    0.27 <
   2  11   9    0.00    0.91    0.23 o
  -2   0  10    1.82    1.71    0.28 o
   0   0  10   11.42    8.84    2.55 o
   2   0  10    4.48    3.89    0.19 o
   4   0  10   59.80   93.97   18.74 o
   6   0  10    1.54    2.25    1.28 <
  -2   1  10   36.99   22.41    7.80 <
  -1   1  10   24.94   47.07   20.71 <
   0   1  10   10.06    6.40    1.16 o
   1   1  10   10.32   10.03    1.92 o
   2   1  10   57.01   73.07    3.60 o
   3   1  10    3.53    2.91    0.70 o
   4   1  10    6.91    8.71    0.96 o
   5   1  10    4.96    5.94    2.03 <
   6   1  10    0.93    1.73    0.50 o
   7   1  10    0.19    0.00    0.18 <
  -2   2  10   19.74   10.97    1.68 o
  -1   2  10    9.47    9.70    0.80 o
   0   2  10    5.68    4.29    0.96 o
   1   2  10   60.92   56.07    5.52 o
   2   2  10    4.81    6.47    0.90 o
   3   2  10    2.77    2.28    0.33 o
   4   2  10    6.92    3.51    0.58 o
   5   2  10    1.18    0.69    0.37 <
   6   2  10    0.18    0.23    0.09 <
   7   2  10    0.08   -0.05    0.14 <
  -7   3  10    0.06   -0.23    0.36 <
  -6   3  10    0.22    0.32    0.36 <
  -5   3  10    2.31    2.45    0.42 o
  -4   3  10    1.09    0.92    0.37 <
  -3   3  10    7.03    7.12    0.44 o
  -2   3  10    7.77    6.95    0.10 o
  -1   3  10   10.55   10.47    3.88 <
   0   3  10    6.51    6.69    1.50 o
   1   3  10    2.13    1.85    0.51 o
   2   3  10   19.61   17.36    1.45 o
   3   3  10    3.46    2.25    0.47 o
   4   3  10    2.07    2.40    0.46 o
   5   3  10    6.88    3.49    0.76 o
   6   3  10    5.38    4.90    1.13 o
   7   3  10    0.03    0.09    0.14 <
  -7   4  10    0.26    0.27    0.27 <
  -6   4  10    0.56    2.32    0.27 o
  -5   4  10    1.44    0.92    0.14 o
  -4   4  10    5.08    4.55    1.04 o
  -3   4  10    7.93    6.09    0.88 o
  -1   4  10    4.26    6.10    1.32 o
   0   4  10    0.31    1.77    0.50 o
   1   4  10   16.46   10.71    1.63 o
   2   4  10   35.34   42.67    4.62 o
   3   4  10    0.02    0.54    0.23 <
   4   4  10    4.56    4.61    0.85 o
   5   4  10    0.18    0.41    0.09 o
   6   4  10    0.01    0.09    0.05 <
  -7   5  10    0.14    0.41    0.14 <
  -6   5  10    0.17    0.59    0.14 o
  -5   5  10    0.09    0.18    0.05 o
  -4   5  10    2.10    4.52    0.28 o
  -3   5  10    9.68    4.48    0.74 o
  -1   5  10    0.95    3.38    0.69 o
   0   5  10    0.07    1.09    0.63 <
   1   5  10    8.15   13.38    4.25 o
   2   5  10    0.30    1.50    0.59 <
   3   5  10    1.28    1.88    0.64 <
   4   5  10    0.26    0.64    0.54 <
   5   5  10    1.76    0.96    0.60 <
   6   5  10    0.01    0.41    0.23 <
  -7   6  10    0.00    0.09    0.05 <
  -6   6  10    0.00    0.27    0.05 o
  -5   6  10    0.11    0.18    0.09 <
  -4   6  10    0.15    0.59    0.27 <
  -3   6  10    2.97    2.42    0.23 o
  -1   6  10    4.82   10.51    2.56 o
   0   6  10    0.15    0.77    0.41 <
   1   6  10    1.00    1.14    0.64 <
   2   6  10    0.27    0.41    0.18 <
   3   6  10    4.81    2.92    0.80 o
   4   6  10    0.67    1.05    0.82 <
   5   6  10    1.69    0.46    0.23 <
   6   6  10    0.02    0.09    0.05 <
  -6   7  10    2.45    3.64    1.38 <
  -5   7  10    0.89    0.27    0.18 <
  -4   7  10    0.73    1.69    0.82 <
  -1   7  10    0.66    0.50    0.27 <
   0   7  10    8.79    7.07    2.78 <
   1   7  10    3.38    3.82    1.35 <
   2   7  10    4.07    3.51    0.84 o
   3   7  10    0.65    0.41    0.23 <
   4   7  10    0.24    0.23    0.14 <
   5   7  10    0.33    0.09    0.05 <
  -6   8  10    0.24    0.09    0.05 <
  -5   8  10    0.08    0.45    0.09 o
  -4   8  10    1.46    5.73    3.11 <
  -1   8  10    3.06    6.32    0.51 o
   0   8  10    0.87    1.10    0.18 o
   1   8  10    0.01    0.63    0.23 <
   2   8  10    0.05    0.23    0.18 <
   3   8  10    0.29    0.27    0.09 o
   4   8  10    0.05    0.41    0.18 <
   5   8  10    0.01    0.32    0.09 o
  -5   9  10    0.03    0.09    0.23 <
  -4   9  10    1.44    1.42    0.18 o
   0   9  10    0.25    1.45    0.82 <
   1   9  10    1.20    0.50    0.37 <
   2   9  10    0.64    0.55    0.32 <
   3   9  10    0.59    0.23    0.09 <
   4   9  10    0.52    0.41    0.18 <
  -4  10  10    0.47    0.41    0.18 <
  -1  10  10    0.11    0.00    0.27 <
   0  10  10    0.48    0.23    0.23 <
   1  10  10    0.00    0.27    0.18 <
   2  10  10    0.32    0.54    0.27 <
   3  10  10    0.00    0.14    0.14 <
   0  11  10    0.10    0.82    0.54 <
   1  11  10    2.80    2.86    0.42 o
  -1   0  11    1.06    3.57    0.82 o
   1   0  11    2.44    5.76    1.81 o
   3   0  11   25.16   33.10    6.94 o
   5   0  11    4.29    1.78    0.33 o
   7   0  11    0.15    0.09    0.05 <
  -2   1  11    2.91    4.15    2.10 <
  -1   1  11   49.16   60.70   21.62 <
   0   1  11    1.19    3.17    1.24 <
   1   1  11   29.28   24.71    2.19 o
   2   1  11    5.41   11.07    2.34 o
   3   1  11    4.83    3.27    0.33 o
   4   1  11    0.01    0.09    0.05 <
   5   1  11    1.42    1.10    0.32 o
   6   1  11    1.76    3.81    2.20 <
   7   1  11    0.09    0.63    0.54 <
  -2   2  11    2.09    3.19    0.79 o
  -1   2  11    2.79    3.50    0.37 o
   0   2  11    0.54    1.32    0.41 o
   1   2  11    2.46    3.06    0.33 o
   2   2  11    2.70   12.23    3.86 o
   3   2  11    0.05    0.95    0.68 <
   4   2  11    0.72    0.68    0.36 <
   5   2  11    1.32    1.69    0.73 <
   6   2  11    1.91    3.40    0.87 o
   7   2  11    0.53    0.32    0.27 <
  -7   3  11    0.00    0.05    0.41 <
  -2   3  11   12.37    6.12    1.67 o
  -1   3  11    1.24    2.39    1.01 <
   0   3  11    0.40    2.59    0.82 o
   1   3  11    1.73    4.79    1.20 o
   2   3  11    5.24    4.28    0.95 o
   3   3  11    0.14    0.73    0.45 <
   4   3  11    0.23    0.86    0.41 <
   5   3  11    1.23    1.19    0.46 <
   6   3  11    0.89    0.41    0.32 <
  -7   4  11    0.96    0.96    0.32 <
  -6   4  11    0.01    0.09    0.27 <
  -5   4  11    0.01    1.36    0.68 <
  -4   4  11    9.86    8.53    1.08 o
  -1   4  11    0.16    0.91    0.41 <
   0   4  11    1.66    3.13    2.07 <
   1   4  11   14.83   13.67    2.11 o
   2   4  11   16.49   29.58    5.34 o
   3   4  11    2.24    3.46    0.74 o
   4   4  11    0.14    0.91    0.50 <
   5   4  11    0.60    0.50    0.09 o
   6   4  11    0.05    0.68    0.41 <
  -7   5  11    0.07   -0.09    0.09 <
  -6   5  11    0.41    0.82    0.23 o
  -5   5  11    0.79    2.05    1.05 <
  -4   5  11    5.86    4.37    1.09 o
  -1   5  11    9.14    8.04    0.20 o
   0   5  11    0.00    0.36    0.09 o
   1   5  11    1.12    1.56    0.27 o
   2   5  11    0.34    0.91    0.41 <
   3   5  11    0.03    0.59    0.36 <
   4   5  11    2.66    1.57    0.51 o
   5   5  11    0.10    0.14    0.05 o
   6   5  11    0.49    0.18    0.36 <
  -6   6  11    0.78    0.73    0.50 <
  -5   6  11    2.79    1.34    0.37 o
  -4   6  11    0.06    0.54    0.27 <
  -1   6  11    5.05    6.53    0.33 o
   0   6  11    0.17    1.09    0.54 <
   1   6  11    0.10    0.18    0.05 o
   2   6  11    6.89    4.50    0.77 o
   3   6  11    0.68    0.46    0.32 <
   4   6  11    0.55    0.68    0.27 <
   5   6  11    0.18    0.05    0.09 <
  -6   7  11    0.35    1.14    0.86 <
  -5   7  11    0.14    0.18    0.18 <
  -4   7  11    0.49    3.46    2.09 <
  -1   7  11    0.06    0.54    0.09 o
   0   7  11    0.00    0.86    0.59 <
   1   7  11    0.02    1.27    0.86 <
   2   7  11    0.56    0.86    0.36 <
   3   7  11    2.37    1.61    0.51 o
   4   7  11    0.14    0.27    0.14 <
   5   7  11    0.01    0.27    0.05 o
  -5   8  11    0.22    0.64    0.09 o
  -4   8  11    0.83    1.18    0.41 <
  -1   8  11    1.57    4.31    0.50 o
   0   8  11    3.50    1.77    0.65 <
   1   8  11    2.56    0.97    0.37 <
   2   8  11    0.56    0.27    0.14 <
   3   8  11    0.86    0.18    0.14 <
   4   8  11    0.34    0.54    0.27 <
  -4   9  11    0.47    0.36    0.18 <
  -1   9  11    1.12    2.38    2.38 <
   0   9  11    0.13    0.41    0.23 <
   1   9  11    0.11    0.45    0.27 <
   2   9  11    0.10    0.09    0.05 <
   3   9  11    0.55    1.05    0.09 o
   0  10  11    0.10    0.36    0.05 o
   1  10  11    0.47    1.59    1.18 <
   2  10  11    0.12    0.54    0.18 o
   0  11  11    0.02    0.09    0.09 <
   0   0  12    1.31    1.79    0.55 o
   2   0  12    0.65    0.55    0.23 <
   4   0  12    4.63    1.93    0.52 o
   6   0  12    0.05    0.18    0.09 <
  -2   1  12    2.41    3.15    0.46 o
  -1   1  12   34.30   32.84    5.69 o
   0   1  12    2.29    3.29    0.60 o
   1   1  12    0.29    5.41    1.95 <
   2   1  12   89.80  107.49    4.67 o
   3   1  12    0.30    0.50    0.09 o
   4   1  12    0.07    1.68    1.04 <
   5   1  12    0.09    0.09    0.09 <
   6   1  12    0.21    0.36    0.23 <
  -3   2  12    2.11    1.20    0.23 o
  -2   2  12    6.92    9.88    1.49 o
  -1   2  12    1.63    3.17    0.55 o
   0   2  12   17.55   20.62    2.83 o
   1   2  12   40.86   41.23    3.20 o
   2   2  12    5.35    4.56    0.47 o
   3   2  12   10.66    8.93    1.09 o
   4   2  12    0.52    0.36    0.14 <
   5   2  12    2.41    1.94    0.37 o
   6   2  12    0.09    0.00    0.14 <
  -3   3  12    4.37    1.93    1.18 <
  -2   3  12    0.28    1.36    0.54 <
  -1   3  12   14.14    9.54    1.89 o
   0   3  12    1.03    0.50    0.14 o
   1   3  12    1.33    2.98    0.64 o
   2   3  12    2.73    2.41    0.37 o
   3   3  12    0.31    0.41    0.18 <
   4   3  12    0.28    0.41    0.18 <
   5   3  12    0.00    0.27    0.18 <
   6   3  12    1.38    0.32    0.09 o
  -6   4  12    0.02    0.32    0.23 <
  -5   4  12    3.19    2.51    0.65 o
  -4   4  12   11.60   11.51    2.32 o
  -2   4  12    3.65    8.74    4.35 <
  -1   4  12    0.06    4.71    3.26 <
   0   4  12    0.88    1.74    0.46 o
   1   4  12    1.85    1.57    0.28 o
   2   4  12   10.76    8.89    1.97 o
   3   4  12    0.91    0.55    0.23 <
   4   4  12    1.67    1.65    0.96 <
   5   4  12    0.04   -0.05    0.09 <
   6   4  12    0.06    0.45    0.32 <
  -6   5  12    0.10    0.32    0.05 o
  -5   5  12    0.08    0.18    0.05 o
  -4   5  12    0.48    1.05    0.27 o
  -1   5  12    2.03    3.13    0.41 o
   0   5  12    0.20    0.18    0.18 <
   1   5  12    0.02    0.41    0.18 <
   2   5  12    7.28    5.09    0.67 o
   3   5  12    0.23    0.41    0.27 <
   4   5  12    0.15    0.05    0.05 <
   5   5  12    0.05    0.36    0.23 <
  -6   6  12    0.51    0.50    0.09 o
  -5   6  12    0.82    0.50    0.05 o
  -4   6  12    0.03    0.68    0.09 o
  -1   6  12    1.47    1.38    0.37 o
   0   6  12    0.46    0.86    0.73 <
   1   6  12    0.17    0.86    0.41 <
   2   6  12    0.09    0.18    0.05 o
   3   6  12    0.78    0.50    0.23 <
   4   6  12    0.02   -0.09    0.14 <
  -5   7  12    1.13    1.46    0.18 o
  -4   7  12    0.35    0.50    0.23 <
  -1   7  12    0.01    1.31    0.59 <
   0   7  12    1.27    0.73    0.41 <
   1   7  12    1.15    0.82    0.23 o
   2   7  12    0.95    3.51    1.96 <
   3   7  12    1.11    1.05    0.41 <
   4   7  12    0.78    0.23    0.14 <
  -4   8  12    1.28    1.55    0.18 o
  -1   8  12    1.34    0.92    0.55 <
   0   8  12    0.01    0.45    0.18 <
   1   8  12    0.09    0.09    0.05 <
   2   8  12    0.35   -0.18    0.18 <
   3   8  12    0.02   -0.23    0.63 <
  -1   9  12    0.07    0.14    0.09 <
   0   9  12    0.12    0.63    0.27 <
   1   9  12    0.35    0.68    0.18 o
   2   9  12    0.00    0.23    0.09 <
   3   9  12    0.71    1.78    0.14 o
  -1  10  12    0.58    1.36    0.55 <
   0  10  12    0.02    0.32    0.09 o
  -1   0  13    8.95    9.29    2.35 o
   1   0  13   10.41    6.86    1.23 o
   3   0  13    2.38    3.05    0.88 o
   5   0  13    0.00    0.05    0.05 <
  -3   1  13    1.14    1.60    0.18 o
  -2   1  13    4.76    5.47    0.80 o
  -1   1  13   26.43   37.11    3.47 o
   0   1  13    9.10    9.29    1.47 o
   1   1  13    2.39    1.85    0.37 o
   2   1  13    0.54    0.55    0.14 o
   3   1  13    2.89    2.32    0.56 o
   4   1  13    0.11    0.05    0.05 <
   5   1  13    0.15    0.68    0.50 <
   6   1  13    0.36    0.36    0.18 <
  -3   2  13    0.05    1.13    0.23 o
  -2   2  13    2.17    1.57    0.14 o
  -1   2  13   11.00    9.27    0.35 o
   0   2  13    0.02    0.72    0.27 <
   1   2  13    0.14    1.50    0.73 <
   2   2  13    5.85    8.17    3.23 <
   3   2  13    0.37    0.73    0.27 <
   4   2  13    0.60    0.64    0.36 <
   5   2  13    0.28    0.18    0.09 <
  -3   3  13    0.58    0.91    0.09 o
  -2   3  13   10.50    9.06    1.23 o
  -1   3  13    3.63    3.64    0.37 o
   0   3  13    6.52    8.23    2.06 o
   1   3  13    4.70    2.69    0.47 o
   2   3  13    0.03    0.59    0.41 <
   3   3  13    0.33    0.36    0.14 <
   4   3  13    0.04    0.50    0.27 <
   5   3  13    0.00    0.05    0.09 <
  -6   4  13    0.06    0.27    0.27 <
  -5   4  13    0.16    0.82    0.18 o
  -4   4  13    0.60    0.73    0.14 o
  -3   4  13    1.91    1.61    0.23 o
  -2   4  13    0.02    0.68    0.36 <
  -1   4  13    0.39    1.73    0.86 <
   0   4  13    6.74    8.80    3.88 <
   1   4  13    6.36    5.34    1.14 o
   2   4  13    0.89    6.02    3.65 <
   3   4  13    0.23    0.54    0.18 o
   4   4  13    1.07    0.32    0.18 <
   5   4  13    0.29    0.95    0.45 <
  -5   5  13    1.35    1.14    0.05 o
  -4   5  13    2.24    2.21    0.09 o
  -2   5  13    0.41    0.23    0.18 <
  -1   5  13    0.26    0.36    0.09 o
   0   5  13    1.41    0.87    0.60 <
   1   5  13    2.92    3.38    1.16 <
   2   5  13    1.56    0.78    0.32 <
   3   5  13    0.10    0.14    0.09 <
   4   5  13    0.88    0.77    0.36 <
   5   5  13    2.78    2.63    0.18 o
  -5   6  13    0.09    0.45    0.09 o
  -4   6  13    0.22    0.41    0.09 o
  -2   6  13    0.49    0.45    0.41 <
  -1   6  13    0.52    0.45    0.14 o
   0   6  13    0.36    0.23    0.14 <
   1   6  13    0.42    0.23    0.14 <
   2   6  13    0.32    0.32    0.14 <
   3   6  13    0.03    0.09    0.09 <
   4   6  13    0.01    0.41    0.09 o
  -4   7  13    0.50    0.36    0.14 <
  -1   7  13    0.02    0.27    0.18 <
   0   7  13    0.04    0.41    0.27 <
   1   7  13    1.78    1.19    0.50 <
   2   7  13    0.79    1.64    0.82 <
   3   7  13    1.04    1.51    0.37 o
   4   7  13    0.17    0.73    0.23 o
  -1   8  13    0.12    1.04    0.54 <
   0   8  13    0.01    0.18    0.18 <
   1   8  13    0.02    0.23    0.23 <
   2   8  13    0.16    0.27    0.14 <
   3   8  13    0.01    0.54    0.09 o
  -1   9  13    0.61    0.68    0.09 o
   1   9  13    0.98    1.00    0.09 o
  -2   0  14   11.43   11.72    5.29 <
   0   0  14    2.31    1.29    0.28 o
   2   0  14    0.35    0.64    0.23 <
   4   0  14    0.05    0.32    0.18 <
  -3   1  14    0.01    0.27    0.23 <
  -2   1  14    2.97    3.81    0.74 o
  -1   1  14    0.92    1.46    0.14 o
   0   1  14    0.16    0.32    0.14 <
   1   1  14    2.35    1.99    0.60 o
   2   1  14    2.69    3.24    0.37 o
   3   1  14    3.17    2.09    0.37 o
   4   1  14    0.10    0.09    0.09 <
   5   1  14    0.35    0.64    0.14 o
  -3   2  14    0.48    0.59    0.05 o
  -2   2  14    0.22    0.36    0.09 o
  -1   2  14    7.80    5.59    1.01 o
   0   2  14    5.99    4.23    1.09 o
   1   2  14    3.07    3.90    0.60 o
   2   2  14    1.34    0.60    0.23 <
   3   2  14    0.01    0.27    0.14 <
   4   2  14    0.34    0.32    0.18 <
   5   2  14    0.31    0.05    0.18 <
  -3   3  14    0.04    0.41    0.09 o
  -2   3  14    0.38    1.00    0.32 o
  -1   3  14    1.19    2.29    0.82 <
   0   3  14    4.01    3.93    0.89 o
   1   3  14    0.92    0.82    0.46 <
   2   3  14    0.03    0.41    0.32 <
   3   3  14    0.32    0.27    0.09 o
   4   3  14    0.07    0.14    0.23 <
   5   3  14    0.08    0.18    0.14 <
  -3   4  14    0.18    0.68    0.09 o
  -2   4  14    3.06    2.83    1.21 <
  -1   4  14    4.82    4.04    0.47 o
   0   4  14    2.48    1.29    0.55 <
   1   4  14    5.31    2.41    0.71 o
   2   4  14    2.85    3.70    0.74 o
   3   4  14    0.47    0.86    0.23 o
   4   4  14    0.69    0.50    0.14 o
  -4   5  14    1.63    1.15    0.05 o
  -2   5  14    0.36    0.45    0.09 o
  -1   5  14    0.00    2.99    1.13 <
   0   5  14    4.23    4.63    1.03 o
   1   5  14    0.49    1.09    0.55 <
   2   5  14    1.58    0.87    0.27 o
   3   5  14    1.17    1.05    0.41 <
   4   5  14    0.05    0.41    0.18 <
  -2   6  14    1.48    1.19    0.27 o
  -1   6  14    0.10    1.41    0.95 <
   0   6  14    0.07    0.18    0.09 <
   1   6  14    1.07    0.37    0.18 <
   2   6  14    0.13    0.05    0.05 <
   3   6  14    0.04    0.91    0.45 <
  -2   7  14    0.79    1.14    0.27 o
  -1   7  14    0.11    0.54    0.36 <
   0   7  14    0.01    0.36    0.32 <
   1   7  14    0.50    0.86    0.86 <
   2   7  14    0.66    0.55    0.09 o
   3   7  14    0.09    0.32    0.18 <
  -1   8  14    0.02    0.50    0.18 <
   0   8  14    0.13    0.45    0.14 o
   1   8  14    0.40    1.77    1.68 <
  -3   0  15    0.44    0.68    0.27 <
  -1   0  15    0.81    1.09    0.09 o
   1   0  15    2.43    1.48    0.78 <
   3   0  15    0.94    0.18    0.14 <
  -3   1  15    0.25    0.41    0.32 <
  -2   1  15    0.74    0.91    0.27 o
  -1   1  15    0.44    1.18    0.64 <
   0   1  15    0.01    0.54    0.32 <
   1   1  15    0.04    0.14    0.09 <
   2   1  15    0.51    0.55    0.09 o
   3   1  15    0.11    0.45    0.14 o
   4   1  15    0.44    0.55    0.18 o
  -3   2  15    0.39    1.18    0.18 o
  -2   2  15    0.08    0.73    0.18 o
  -1   2  15    1.25    1.42    0.18 o
   0   2  15    0.09    1.18    1.00 <
   1   2  15    0.21    0.86    0.68 <
   2   2  15    3.11    2.41    0.65 o
   3   2  15    0.16    0.36    0.18 <
   4   2  15    0.70    0.23    0.14 <
  -3   3  15    0.07    0.36    0.18 <
  -2   3  15    1.19    1.69    0.32 o
  -1   3  15    2.07    3.77    1.01 o
   0   3  15    0.15    0.77    0.18 o
   1   3  15    3.43    2.70    0.46 o
   2   3  15    1.68    0.96    0.28 o
   3   3  15    0.06    0.09    0.18 <
   4   3  15    0.32    0.68    0.18 o
  -4   4  15    0.02    0.18    0.09 <
  -3   4  15    1.02    0.82    0.05 o
  -2   4  15    0.13    0.86    0.27 o
  -1   4  15    0.22    0.50    0.23 <
   0   4  15    7.50    3.11    0.86 o
   1   4  15    1.72    1.19    0.50 <
   2   4  15    0.91    0.91    0.27 o
   3   4  15    0.06   -0.05    0.14 <
  -2   5  15    0.26    3.18    2.45 <
  -1   5  15    0.47    0.91    0.32 <
   0   5  15    0.90    0.41    0.14 <
   1   5  15    1.50    1.05    0.46 <
   2   5  15    0.00    0.18    0.32 <
   3   5  15    0.10    0.27    0.18 <
  -2   6  15    0.24    0.41    0.18 <
  -1   6  15    0.00    0.41    0.36 <
   0   6  15    0.49    0.86    0.64 <
   1   6  15    0.82    0.82    0.41 <
   2   6  15    0.38    1.18    0.18 o
  -2   7  15    0.01    0.05    0.23 <
  -1   7  15    0.10    0.68    0.54 <
   0   7  15    0.75    0.46    0.36 <
   1   7  15    3.11    4.07    0.37 o
  -2   0  16    0.52    5.09    3.41 <
   0   0  16    0.84    1.05    0.46 <
   2   0  16    0.09    0.05    0.05 <
  -3   1  16    0.11    0.73    0.23 o
  -2   1  16    0.58    0.45    0.09 o
  -1   1  16    1.27    2.19    0.14 o
   0   1  16    0.03    0.14    0.05 o
   1   1  16    1.40    0.92    0.32 <
   2   1  16    0.08    0.27    0.09 o
   3   1  16    0.85    1.28    0.23 o
  -3   2  16    2.16    0.83    0.23 o
  -2   2  16    0.00    0.41    0.23 <
  -1   2  16    0.46    0.50    0.27 <
   0   2  16    0.02    0.18    0.09 <
   1   2  16    0.00    0.09    0.05 <
   2   2  16    0.24    1.04    0.41 <
   3   2  16    0.07    0.05    0.05 <
  -3   3  16    0.46    0.27    0.23 <
  -2   3  16    0.83    1.05    0.32 o
  -1   3  16    0.24    1.27    0.32 o
   0   3  16    0.58    0.23    0.09 <
   1   3  16    0.42    0.50    0.09 o
   2   3  16    0.37    0.41    0.14 <
   3   3  16    0.01    0.18    0.14 <
  -3   4  16    0.03    0.27    0.27 <
  -2   4  16    0.19    0.50    0.18 <
  -1   4  16    0.15    0.36    0.09 o
   0   4  16    5.01    7.60    2.20 o
   1   4  16    0.05    0.73    0.41 <
   2   4  16    0.07    0.27    0.18 <
  -2   5  16    0.76    1.09    0.27 o
  -1   5  16    0.16    1.00    0.36 <
   0   5  16    0.82    1.82    0.96 <
   1   5  16    0.02   -0.23    0.27 <
  -3   0  17    0.56    1.14    0.55 <
  -1   0  17    0.38    0.59    0.09 o
   1   0  17    0.09    0.18    0.05 o
  -2   1  17    0.16    0.63    0.14 o
  -1   1  17    1.24    1.28    0.27 o
   0   1  17    0.12    0.45    0.14 o
   1   1  17    0.76    0.59    0.27 <
  -2   2  17    0.40    0.36    0.18 <
  -1   2  17    0.89    1.28    0.27 o
   0   2  17    0.30    0.36    0.05 o
   1   2  17    0.01    0.54    0.41 <
  -2   3  17    0.25    0.14    0.18 <
  -1   3  17    0.74    1.27    0.32 o
   0   3  17    0.01    0.36    0.14 <
   1   3  17    0.34    0.68    0.14 o

#=======================================================================
