
#######################################################################
#
#                 Cambridge Crystallographic Data Centre
#                                CCDC
#
#######################################################################
#
# If this CIF has been generated from an entry in the Cambridge
# Structural Database, then it will include bibliographic, chemical,
# crystal, experimental, refinement or atomic coordinate data resulting
# from the CCDC's data processing and validation procedures.
#
#######################################################################

data_0001
_symmetry_cell_setting           tetragonal
_symmetry_space_group_name_H-M   'P 43 21 2'
_symmetry_Int_Tables_number      96
_space_group_name_Hall           'P 4nw 2abw'
loop_
_symmetry_equiv_pos_site_id
_symmetry_equiv_pos_as_xyz
1 x,y,z
2 -x,-y,1/2+z
3 1/2-y,1/2+x,3/4+z
4 1/2+y,1/2-x,1/4+z
5 1/2-x,1/2+y,3/4-z
6 1/2+x,1/2-y,1/4-z
7 y,x,-z
8 -y,-x,1/2-z
_cell_length_a                   78.54
_cell_length_b                   78.54
_cell_length_c                   37.77
_cell_angle_alpha                90
_cell_angle_beta                 90
_cell_angle_gamma                90
_cell_volume                     232985
loop_
_atom_site_label
_atom_site_type_symbol
_atom_site_fract_x
_atom_site_fract_y
_atom_site_fract_z
_atom_site_U_iso_or_equiv
_atom_site_thermal_displace_type
N N 1.04247 0.128262 0.273524 0.1693 Uiso
CA C 1.03093 0.132718 0.243553 0.1810 Uiso
C C 1.03075 0.151918 0.237066 0.1810 Uiso
O O 1.03043 0.161938 0.262218 0.1730 Uiso
CB C 1.01273 0.126607 0.251681 0.1916 Uiso
CG C 0.999516 0.132973 0.226184 0.2130 Uiso
CD C 0.981946 0.126187 0.234763 0.2253 Uiso
CD C 0.981831 0.12662 0.236457 0.2173 Uiso
CE C 0.968717 0.134475 0.210934 0.2386 Uiso
CE C 0.967966 0.135876 0.215832 0.2295 Uiso
NZ N 0.951695 0.126263 0.213767 0.2372 Uiso
NZ N 0.96901 0.133724 0.176568 0.2186 Uiso
N N 1.03141 0.156973 0.203547 0.1769 Uiso
CA C 1.03077 0.17495 0.194228 0.1863 Uiso
C C 1.01271 0.178121 0.181096 0.1943 Uiso
O O 1.00731 0.170762 0.154726 0.2191 Uiso
CB C 1.04408 0.179852 0.165634 0.1782 Uiso
CG1 C 1.04188 0.198619 0.154885 0.2006 Uiso
CG2 C 1.06204 0.177115 0.18001 0.1883 Uiso
N N 1.0029 0.187861 0.201165 0.1785 Uiso
CA C 0.985345 0.191426 0.191342 0.1921 Uiso
C C 0.983627 0.204731 0.162642 0.2007 Uiso
O O 0.994844 0.215464 0.157665 0.2040 Uiso
CB C 0.975389 0.197995 0.223378 0.1835 Uiso
CG C 0.968081 0.184258 0.246386 0.1862 Uiso
CD1 C 0.978114 0.176313 0.27212 0.1754 Uiso
CD2 C 0.950995 0.179521 0.243023 0.1838 Uiso
CE1 C 0.971213 0.163874 0.294175 0.1918 Uiso
CE2 C 0.943916 0.167057 0.264945 0.1959 Uiso
CZ C 0.95405 0.159214 0.290654 0.2058 Uiso
N N 0.969698 0.203496 0.143129 0.2119 Uiso
CA C 0.965509 0.217004 0.118374 0.1969 Uiso
C C 0.956151 0.230296 0.139449 0.1854 Uiso
O O 0.94939 0.22626 0.167937 0.1743 Uiso
N N 0.955514 0.245957 0.12735 0.1852 Uiso
CA C 0.947213 0.259504 0.147154 0.1853 Uiso
C C 0.928777 0.255353 0.156844 0.1877 Uiso
O O 0.924105 0.255417 0.188059 0.1782 Uiso
CB C 0.94813 0.276068 0.126185 0.1883 Uiso
CG C 0.940312 0.291168 0.144691 0.1924 Uiso
CD C 0.942744 0.307287 0.123246 0.2280 Uiso
NE N 0.935156 0.306485 0.0878474 0.2675 Uiso
CZ C 0.918681 0.309018 0.08054 0.2847 Uiso
NH1 N 0.907515 0.31252 0.106063 0.2699 Uiso
NH2 N 0.913359 0.308407 0.0471802 0.2912 Uiso
N N 0.918337 0.251508 0.130182 0.1939 Uiso
CA C 0.900359 0.247345 0.136722 0.1977 Uiso
C C 0.897902 0.23036 0.155599 0.1828 Uiso
O O 0.885896 0.228132 0.175907 0.1891 Uiso
CB C 0.890174 0.247752 0.102091 0.2029 Uiso
SG S 0.889588 0.268785 0.0820491 0.2204 Uiso
N N 0.909628 0.218468 0.149828 0.1833 Uiso
CA C 0.908584 0.201853 0.167037 0.1760 Uiso
C C 0.910787 0.204209 0.206831 0.1662 Uiso
O O 0.901976 0.196353 0.228011 0.1558 Uiso
CB C 0.922513 0.190089 0.153164 0.1938 Uiso
CG C 0.921647 0.172111 0.167937 0.2031 Uiso
CD C 0.937206 0.161544 0.158777 0.2181 Uiso
OE1 O 0.95046 0.169005 0.149166 0.2403 Uiso
OE2 O 0.936455 0.14568 0.162033 0.2296 Uiso
N N 0.922729 0.215171 0.216759 0.1602 Uiso
CA C 0.92576 0.218799 0.254064 0.1645 Uiso
C C 0.910596 0.228565 0.269843 0.1674 Uiso
O O 0.904854 0.224809 0.299285 0.1759 Uiso
CB C 0.942146 0.229151 0.258512 0.1612 Uiso
CG C 0.94608 0.23325 0.29714 0.1603 Uiso
CD1 C 0.948741 0.216699 0.318453 0.1643 Uiso
CD2 C 0.961728 0.244378 0.298729 0.1598 Uiso
N N 0.904332 0.241233 0.250384 0.1669 Uiso
CA C 0.889664 0.251291 0.26198 0.1716 Uiso
C C 0.874794 0.239387 0.270611 0.1643 Uiso
O O 0.867091 0.240584 0.298861 0.1726 Uiso
CB C 0.88447 0.264074 0.232856 0.1631 Uiso
N N 0.871139 0.227546 0.24665 0.1706 Uiso
CA C 0.857274 0.215476 0.252131 0.1785 Uiso
C C 0.860419 0.204323 0.284643 0.1791 Uiso
O O 0.849011 0.201497 0.306063 0.1858 Uiso
CB C 0.854906 0.20445 0.219248 0.1886 Uiso
N N 0.876016 0.19811 0.288588 0.1800 Uiso
CA C 0.880357 0.187364 0.318692 0.1717 Uiso
C C 0.878511 0.197091 0.353613 0.1815 Uiso
O O 0.872082 0.190191 0.379772 0.1779 Uiso
CB C 0.898526 0.180514 0.314747 0.1868 Uiso
N N 0.884164 0.213083 0.353984 0.1696 Uiso
CA C 0.883158 0.223434 0.385782 0.1681 Uiso
C C 0.864901 0.22719 0.395313 0.1781 Uiso
O O 0.860164 0.226502 0.426449 0.1923 Uiso
CB C 0.892937 0.239871 0.380698 0.1493 Uiso
CG C 0.911945 0.23721 0.38189 0.1667 Uiso
SD S 0.923328 0.256754 0.376224 0.1804 Uiso
CE C 0.942057 0.252717 0.402859 0.1774 Uiso
N N 0.854588 0.230577 0.368308 0.1916 Uiso
CA C 0.836572 0.234434 0.373259 0.2232 Uiso
C C 0.827609 0.21913 0.389091 0.2221 Uiso
O O 0.818263 0.220773 0.41517 0.2220 Uiso
CB C 0.828474 0.239247 0.337807 0.2449 Uiso
CG C 0.809886 0.244276 0.339819 0.3055 Uiso
CD C 0.805493 0.255493 0.308366 0.3447 Uiso
CE C 0.786917 0.260726 0.308075 0.3925 Uiso
NZ N 0.776184 0.246619 0.294996 0.4345 Uiso
N N 0.831428 0.204132 0.374609 0.2348 Uiso
CA C 0.823916 0.188192 0.386814 0.2449 Uiso
C C 0.82878 0.18497 0.425178 0.2385 Uiso
O O 0.818824 0.177777 0.445432 0.2315 Uiso
CB C 0.829913 0.173359 0.36378 0.2722 Uiso
CG C 0.816074 0.160398 0.356632 0.3560 Uiso
CD C 0.82137 0.14242 0.366587 0.4045 Uiso
NE N 0.838635 0.138104 0.355334 0.4486 Uiso
CZ C 0.847076 0.124532 0.367116 0.4653 Uiso
NH1 N 0.839666 0.113951 0.389859 0.4852 Uiso
NH2 N 0.863016 0.121718 0.356923 0.4870 Uiso
N N 0.844084 0.190573 0.435212 0.2263 Uiso
CA C 0.850183 0.188485 0.471352 0.2263 Uiso
C C 0.844759 0.202528 0.497034 0.2232 Uiso
O O 0.851112 0.203368 0.526952 0.2273 Uiso
CB C 0.869382 0.185785 0.471935 0.2297 Uiso
CG C 0.874539 0.167948 0.463251 0.2690 Uiso
ND1 N 0.87883 0.162868 0.429494 0.2741 Uiso
CD2 C 0.875685 0.153803 0.483769 0.2757 Uiso
CE1 C 0.882407 0.146354 0.429547 0.2829 Uiso
NE2 N 0.880574 0.140612 0.462297 0.2912 Uiso
N N 0.833147 0.213503 0.484961 0.2305 Uiso
CA C 0.826119 0.226986 0.507095 0.2335 Uiso
C C 0.836279 0.243067 0.513873 0.2530 Uiso
O O 0.832842 0.252272 0.539501 0.2501 Uiso
N N 0.848731 0.246606 0.491342 0.2480 Uiso
CA C 0.858968 0.261885 0.495816 0.2401 Uiso
C C 0.851125 0.278169 0.481016 0.2441 Uiso
O O 0.855925 0.292085 0.492162 0.2543 Uiso
CB C 0.876767 0.2593 0.480301 0.2276 Uiso
CG C 0.889142 0.248847 0.502567 0.2211 Uiso
CD1 C 0.906598 0.249496 0.484696 0.2394 Uiso
CD2 C 0.890467 0.256091 0.539846 0.2191 Uiso
N N 0.839068 0.27687 0.456446 0.2381 Uiso
CA C 0.83153 0.292378 0.441805 0.2515 Uiso
C C 0.82221 0.301876 0.47114 0.2462 Uiso
O O 0.810306 0.295255 0.487423 0.2498 Uiso
CB C 0.819486 0.288584 0.410828 0.2764 Uiso
CG C 0.81298 0.30483 0.39203 0.3122 Uiso
OD1 O 0.820632 0.318847 0.395631 0.3095 Uiso
OD2 O 0.799917 0.303467 0.373047 0.3510 Uiso
N N 0.828462 0.317103 0.478845 0.2354 Uiso
CA C 0.821345 0.328015 0.506115 0.2371 Uiso
C C 0.824528 0.321661 0.543817 0.2204 Uiso
O O 0.81671 0.327862 0.568996 0.2197 Uiso
CB C 0.802361 0.331108 0.49939 0.2951 Uiso
CG C 0.798962 0.337882 0.462324 0.3612 Uiso
OD1 O 0.804513 0.351912 0.452925 0.4034 Uiso
ND2 N 0.790342 0.327747 0.44064 0.4022 Uiso
N N 0.836356 0.30968 0.548212 0.1991 Uiso
CA C 0.840404 0.303493 0.583505 0.1823 Uiso
C C 0.848604 0.318364 0.603547 0.1953 Uiso
O O 0.860992 0.325863 0.59113 0.1806 Uiso
CB C 0.852563 0.288342 0.582181 0.1697 Uiso
CG C 0.854651 0.280359 0.618109 0.1859 Uiso
CD1 C 0.842734 0.268709 0.630817 0.1901 Uiso
CD2 C 0.868071 0.285044 0.640243 0.1835 Uiso
CE1 C 0.844071 0.262037 0.66468 0.2180 Uiso
CE2 C 0.869535 0.278538 0.674105 0.1977 Uiso
CZ C 0.857529 0.267041 0.686178 0.2261 Uiso
OH O 0.858828 0.26079 0.720015 0.2661 Uiso
N N 0.841219 0.322769 0.634021 0.2018 Uiso
CA C 0.84691 0.337143 0.656181 0.2216 Uiso
C C 0.846096 0.353708 0.635398 0.1964 Uiso
O O 0.855937 0.365447 0.642308 0.2080 Uiso
CB C 0.864952 0.33461 0.670822 0.2504 Uiso
CG C 0.866607 0.32035 0.697113 0.3347 Uiso
CD C 0.856816 0.323928 0.730658 0.4148 Uiso
NE N 0.852754 0.308063 0.7489 0.4937 Uiso
CZ C 0.85171 0.306357 0.783822 0.5319 Uiso
NH1 N 0.855301 0.319446 0.805082 0.5430 Uiso
NH2 N 0.847853 0.291232 0.797537 0.5658 Uiso
N N 0.834675 0.354319 0.609478 0.1766 Uiso
CA C 0.832651 0.369419 0.587741 0.1796 Uiso
C C 0.844924 0.371443 0.556737 0.1734 Uiso
O O 0.844835 0.384697 0.538972 0.1793 Uiso
N N 0.855505 0.358635 0.549721 0.1652 Uiso
CA C 0.8676 0.359845 0.52028 0.1484 Uiso
C C 0.860827 0.350741 0.488006 0.1474 Uiso
O O 0.859311 0.335234 0.48782 0.1455 Uiso
CB C 0.884915 0.352613 0.530632 0.1386 Uiso
CG C 0.893751 0.363371 0.558035 0.1211 Uiso
CD1 C 0.903912 0.377045 0.547921 0.1223 Uiso
CD2 C 0.891982 0.359883 0.594148 0.1229 Uiso
CE1 C 0.912213 0.386976 0.573073 0.1211 Uiso
CE2 C 0.900232 0.369814 0.619512 0.1268 Uiso
CZ C 0.910379 0.383361 0.608604 0.1189 Uiso
OH O 0.919177 0.392999 0.632882 0.1349 Uiso
N N 0.857172 0.360519 0.460338 0.1568 Uiso
CA C 0.850361 0.353211 0.427932 0.1636 Uiso
C C 0.863309 0.341281 0.411384 0.1682 Uiso
O O 0.878664 0.342695 0.418109 0.1557 Uiso
CB C 0.845332 0.367153 0.402038 0.1679 Uiso
OG O 0.859362 0.377758 0.39346 0.2001 Uiso
N N 0.856969 0.329822 0.389277 0.1716 Uiso
CA C 0.867409 0.317167 0.371697 0.1644 Uiso
C C 0.883044 0.324233 0.35311 0.1539 Uiso
O O 0.896667 0.316428 0.354222 0.1463 Uiso
CB C 0.856383 0.307325 0.345538 0.1804 Uiso
CG C 0.862087 0.289717 0.333651 0.1801 Uiso
CD1 C 0.864964 0.278449 0.365634 0.1971 Uiso
CD2 C 0.848438 0.282141 0.309743 0.1859 Uiso
N N 0.881261 0.338862 0.335875 0.1460 Uiso
CA C 0.895687 0.346387 0.317421 0.1398 Uiso
C C 0.910927 0.349557 0.341355 0.1308 Uiso
O O 0.925416 0.348513 0.329785 0.1491 Uiso
N N 0.907655 0.353351 0.374927 0.1168 Uiso
CA C 0.921405 0.356496 0.400211 0.1234 Uiso
C C 0.931884 0.340441 0.40593 0.1265 Uiso
O O 0.94748 0.34095 0.406645 0.1307 Uiso
CB C 0.914301 0.362353 0.435821 0.1384 Uiso
CG C 0.90917 0.380763 0.435477 0.1406 Uiso
OD1 O 0.919916 0.391955 0.436907 0.1416 Uiso
ND2 N 0.892657 0.384048 0.432591 0.1581 Uiso
N N 0.923111 0.326143 0.409716 0.1178 Uiso
CA C 0.931375 0.309859 0.415753 0.1222 Uiso
C C 0.941382 0.303913 0.383823 0.1225 Uiso
O O 0.955374 0.297088 0.387529 0.1310 Uiso
CB C 0.918108 0.29663 0.426343 0.1203 Uiso
CG C 0.909756 0.301163 0.460206 0.1170 Uiso
CD1 C 0.893942 0.307987 0.464654 0.1325 Uiso
CD2 C 0.916822 0.299227 0.494969 0.1335 Uiso
NE1 N 0.890658 0.310368 0.500079 0.1298 Uiso
CE2 C 0.904472 0.30511 0.5193 0.1330 Uiso
CE3 C 0.932457 0.293052 0.507969 0.1458 Uiso
CZ2 C 0.907171 0.304931 0.555943 0.1555 Uiso
CZ3 C 0.935118 0.292887 0.544373 0.1663 Uiso
CH2 C 0.922539 0.298833 0.567937 0.1686 Uiso
N N 0.934303 0.306536 0.352422 0.1194 Uiso
CA C 0.942935 0.301316 0.320068 0.1183 Uiso
C C 0.958583 0.312405 0.314376 0.1137 Uiso
O O 0.972257 0.306128 0.305639 0.1269 Uiso
CB C 0.930853 0.302118 0.287847 0.1402 Uiso
CG1 C 0.940733 0.298018 0.253534 0.1522 Uiso
CG2 C 0.915982 0.289602 0.293248 0.1294 Uiso
N N 0.956673 0.328829 0.320598 0.1046 Uiso
CA C 0.970856 0.340505 0.316812 0.1153 Uiso
C C 0.985014 0.335768 0.343155 0.1165 Uiso
O O 1.00008 0.335641 0.333862 0.1212 Uiso
CB C 0.964758 0.358686 0.32359 0.1232 Uiso
SG S 0.981144 0.374677 0.317818 0.1411 Uiso
N N 0.980138 0.331707 0.375853 0.1141 Uiso
CA C 0.99259 0.326945 0.402726 0.1324 Uiso
C C 1.00223 0.310966 0.391024 0.1311 Uiso
O O 1.01791 0.31047 0.392613 0.1432 Uiso
CB C 0.983932 0.323953 0.438178 0.1340 Uiso
N N 0.992934 0.298273 0.377918 0.1211 Uiso
CA C 1.00087 0.282523 0.366004 0.1180 Uiso
C C 1.01287 0.285872 0.335027 0.1258 Uiso
O O 1.02671 0.2785 0.333042 0.1334 Uiso
CB C 0.987344 0.269536 0.355626 0.1098 Uiso
N N 1.00763 0.296847 0.310722 0.1213 Uiso
CA C 1.01822 0.300921 0.280196 0.1370 Uiso
C C 1.03547 0.307771 0.291448 0.1444 Uiso
O O 1.04883 0.301647 0.279798 0.1546 Uiso
CB C 1.00955 0.314289 0.256897 0.1579 Uiso
CG C 1.02103 0.32161 0.228117 0.1791 Uiso
CD C 1.02611 0.308191 0.201297 0.2202 Uiso
CE C 1.03769 0.315703 0.173232 0.2466 Uiso
NZ N 1.04221 0.302601 0.146651 0.2831 Uiso
N N 1.03514 0.320515 0.314402 0.1388 Uiso
CA C 1.05089 0.328295 0.325469 0.1412 Uiso
C C 1.06076 0.31914 0.353613 0.1408 Uiso
O O 1.07598 0.321814 0.356738 0.1659 Uiso
CB C 1.0481 0.347113 0.333677 0.1483 Uiso
CG C 1.04258 0.357082 0.301668 0.1394 Uiso
CD1 C 1.05202 0.356127 0.270241 0.1392 Uiso
CD2 C 1.02769 0.366618 0.302118 0.1524 Uiso
CE1 C 1.04657 0.364543 0.239502 0.1650 Uiso
CE2 C 1.0221 0.375072 0.271617 0.1812 Uiso
CZ C 1.0316 0.374041 0.240217 0.1622 Uiso
N N 1.05242 0.308127 0.373576 0.1194 Uiso
CA C 1.06144 0.298629 0.400635 0.1277 Uiso
C C 1.07045 0.283096 0.385464 0.1392 Uiso
O O 1.08518 0.279951 0.393751 0.1393 Uiso
CB C 1.04918 0.292594 0.42952 0.1229 Uiso
CG C 1.04297 0.306625 0.454487 0.1389 Uiso
CD C 1.05692 0.313436 0.478845 0.1560 Uiso
OE1 O 1.07074 0.305606 0.480486 0.1619 Uiso
OE2 O 1.05414 0.326512 0.496663 0.1692 Uiso
N N 1.06183 0.273814 0.362033 0.1302 Uiso
CA C 1.06878 0.257874 0.348053 0.1364 Uiso
C C 1.06819 0.255328 0.308207 0.1415 Uiso
O O 1.07339 0.24187 0.295234 0.1387 Uiso
CB C 1.05845 0.243347 0.363992 0.1336 Uiso
OG O 1.04163 0.243665 0.349907 0.1337 Uiso
N N 1.0612 0.267741 0.289171 0.1437 Uiso
CA C 1.0589 0.266621 0.250913 0.1654 Uiso
C C 1.04725 0.251432 0.242864 0.1496 Uiso
O O 1.0495 0.242506 0.216706 0.1498 Uiso
CB C 1.07592 0.265297 0.231083 0.2099 Uiso
CG C 1.07465 0.271752 0.193407 0.2439 Uiso
OD1 O 1.06333 0.281823 0.184617 0.2777 Uiso
ND2 N 1.08632 0.266201 0.170903 0.2832 Uiso
N N 1.0351 0.248554 0.266719 0.1368 Uiso
CA C 1.02241 0.235007 0.264072 0.1399 Uiso
C C 1.02977 0.21703 0.266666 0.1422 Uiso
O O 1.02152 0.204769 0.255785 0.1474 Uiso
CB C 1.01249 0.23637 0.229176 0.1500 Uiso
CG C 1.00294 0.252756 0.224278 0.1397 Uiso
CD1 C 0.995455 0.261006 0.25274 0.1360 Uiso
CD2 C 1.00087 0.259427 0.190415 0.1515 Uiso
CE1 C 0.98574 0.275661 0.247524 0.1522 Uiso
CE2 C 0.991266 0.273954 0.184802 0.1600 Uiso
CZ C 0.98369 0.282103 0.213555 0.1460 Uiso
N N 1.04507 0.215451 0.281202 0.1334 Uiso
CA C 1.05351 0.198912 0.284379 0.1339 Uiso
C C 1.05169 0.192253 0.322028 0.1250 Uiso
O O 1.05864 0.199689 0.346889 0.1312 Uiso
CB C 1.07238 0.200975 0.27498 0.1308 Uiso
CG C 1.0821 0.184245 0.274741 0.1460 Uiso
OD1 O 1.07512 0.170469 0.28136 0.1475 Uiso
ND2 N 1.09848 0.185416 0.266772 0.1855 Uiso
N N 1.04289 0.177917 0.326025 0.1274 Uiso
CA C 1.04019 0.170392 0.360815 0.1308 Uiso
C C 1.05658 0.164421 0.37813 0.1203 Uiso
O O 1.05731 0.162817 0.41006 0.1235 Uiso
CB C 1.02814 0.154936 0.359332 0.1343 Uiso
OG1 O 1.03566 0.141631 0.338628 0.1451 Uiso
CG2 C 1.01114 0.159927 0.343261 0.1443 Uiso
N N 1.06969 0.161327 0.356791 0.1225 Uiso
CA C 1.08583 0.154783 0.370532 0.1253 Uiso
C C 1.09897 0.168139 0.380672 0.1374 Uiso
O O 1.11312 0.163925 0.391527 0.1519 Uiso
CB C 1.09355 0.142255 0.343844 0.1386 Uiso
CG C 1.0824 0.126709 0.336589 0.1349 Uiso
CD C 1.09221 0.112525 0.318771 0.1553 Uiso
OE1 O 1.10215 0.103537 0.335769 0.1893 Uiso
NE2 N 1.09 0.110858 0.284273 0.1553 Uiso
N N 1.09422 0.184245 0.378024 0.1337 Uiso
CA C 1.10601 0.197932 0.38655 0.1450 Uiso
C C 1.11129 0.198135 0.425469 0.1311 Uiso
O O 1.1008 0.195614 0.449245 0.1225 Uiso
CB C 1.09819 0.215094 0.376383 0.1411 Uiso
N N 1.12778 0.200376 0.431506 0.1230 Uiso
CA C 1.13459 0.20184 0.46701 0.1349 Uiso
C C 1.14755 0.2161 0.466136 0.1327 Uiso
O O 1.15608 0.218952 0.439396 0.1519 Uiso
CB C 1.14372 0.185543 0.479798 0.1494 Uiso
OG1 O 1.15701 0.181189 0.455334 0.1681 Uiso
CG2 C 1.13142 0.170762 0.483717 0.1473 Uiso
N N 1.14896 0.225255 0.495339 0.1375 Uiso
CA C 1.16135 0.238878 0.497961 0.1522 Uiso
C C 1.16711 0.240444 0.536139 0.1475 Uiso
O O 1.15663 0.241093 0.56002 0.1440 Uiso
CB C 1.15368 0.255519 0.48467 0.1909 Uiso
CG C 1.15082 0.255442 0.444532 0.2229 Uiso
OD1 O 1.13659 0.253176 0.431797 0.2591 Uiso
ND2 N 1.16454 0.257441 0.424649 0.2258 Uiso
N N 1.18386 0.240457 0.541699 0.1598 Uiso
CA C 1.19123 0.241768 0.57723 0.1776 Uiso
C C 1.19246 0.260344 0.588191 0.1858 Uiso
O O 1.19677 0.271268 0.566639 0.1988 Uiso
CB C 1.20922 0.23418 0.577812 0.2094 Uiso
CG C 1.21616 0.230564 0.61472 0.2314 Uiso
CD C 1.21014 0.213312 0.62629 0.2910 Uiso
NE N 1.21318 0.209785 0.663674 0.3370 Uiso
CZ C 1.22567 0.199905 0.675959 0.3282 Uiso
NH1 N 1.2366 0.192699 0.653772 0.3320 Uiso
NH2 N 1.22621 0.195958 0.710113 0.3146 Uiso
N N 1.18887 0.263756 0.621762 0.1940 Uiso
CA C 1.18976 0.280919 0.636245 0.2195 Uiso
C C 1.20623 0.28223 0.657081 0.2261 Uiso
O O 1.21332 0.269307 0.667857 0.2366 Uiso
CB C 1.17443 0.284229 0.660153 0.2324 Uiso
CG C 1.15749 0.281988 0.640799 0.2392 Uiso
OD1 O 1.14601 0.273152 0.653348 0.2750 Uiso
ND2 N 1.15601 0.289844 0.610034 0.2646 Uiso
N N 1.21212 0.297763 0.663886 0.2624 Uiso
CA C 1.22816 0.300539 0.683213 0.2837 Uiso
C C 1.2279 0.293791 0.720862 0.2736 Uiso
O O 1.24108 0.288405 0.734471 0.2956 Uiso
CB C 1.23328 0.319573 0.684113 0.3035 Uiso
OG1 O 1.21995 0.329402 0.699972 0.3435 Uiso
CG2 C 1.23631 0.325926 0.646941 0.3161 Uiso
N N 1.21302 0.293995 0.737595 0.2570 Uiso
CA C 1.21155 0.28759 0.773549 0.2524 Uiso
C C 1.21191 0.268098 0.774741 0.2462 Uiso
O O 1.21036 0.260599 0.803282 0.2660 Uiso
CB C 1.1955 0.29444 0.791632 0.2517 Uiso
CG C 1.17934 0.288533 0.774185 0.2769 Uiso
OD1 O 1.18007 0.280091 0.746464 0.3011 Uiso
OD2 O 1.16555 0.29239 0.787926 0.3062 Uiso
N N 1.21334 0.259886 0.744029 0.2215 Uiso
CA C 1.21405 0.241462 0.743261 0.1920 Uiso
C C 1.19724 0.232652 0.735715 0.1890 Uiso
O O 1.19684 0.217182 0.729758 0.1967 Uiso
N N 1.18328 0.242163 0.736668 0.1648 Uiso
CA C 1.16676 0.234753 0.729017 0.1505 Uiso
C C 1.16562 0.232983 0.688694 0.1407 Uiso
O O 1.17659 0.239336 0.669472 0.1508 Uiso
CB C 1.15269 0.246313 0.742546 0.1541 Uiso
OG O 1.1531 0.262088 0.724489 0.1748 Uiso
N N 1.15259 0.224223 0.675879 0.1293 Uiso
CA C 1.15052 0.221791 0.637807 0.1318 Uiso
C C 1.13181 0.224567 0.629176 0.1286 Uiso
O O 1.12089 0.221028 0.651495 0.1307 Uiso
CB C 1.15575 0.203508 0.626846 0.1405 Uiso
OG1 O 1.1733 0.200618 0.636139 0.1312 Uiso
CG2 C 1.15343 0.20072 0.586973 0.1417 Uiso
N N 1.12844 0.231837 0.59804 0.1170 Uiso
CA C 1.11118 0.234995 0.585226 0.1273 Uiso
C C 1.10709 0.220506 0.560126 0.1216 Uiso
O O 1.11778 0.215731 0.538416 0.1179 Uiso
CB C 1.11022 0.251877 0.565845 0.1384 Uiso
CG C 1.113 0.266748 0.589991 0.1738 Uiso
OD1 O 1.11046 0.265068 0.622212 0.1830 Uiso
OD2 O 1.11761 0.28046 0.576674 0.2647 Uiso
N N 1.09144 0.214101 0.562324 0.1237 Uiso
CA C 1.08608 0.199396 0.541778 0.1160 Uiso
C C 1.06987 0.201229 0.521471 0.1253 Uiso
O O 1.05715 0.207697 0.535001 0.1321 Uiso
CB C 1.08292 0.184385 0.566613 0.1165 Uiso
CG C 1.09843 0.178108 0.585543 0.1212 Uiso
CD1 C 1.10378 0.185645 0.617023 0.1246 Uiso
CD2 C 1.10806 0.164752 0.571696 0.1211 Uiso
CE1 C 1.11834 0.180107 0.634206 0.1226 Uiso
CE2 C 1.12258 0.159112 0.588667 0.1369 Uiso
CZ C 1.12756 0.166904 0.619856 0.1310 Uiso
OH O 1.1419 0.161454 0.636801 0.1424 Uiso
N N 1.0702 0.194558 0.489409 0.1273 Uiso
CA C 1.05495 0.193959 0.46836 0.1343 Uiso
C C 1.04922 0.209301 0.448133 0.1197 Uiso
O O 1.05736 0.222695 0.447286 0.1213 Uiso
N N 1.03408 0.20715 0.43365 0.1311 Uiso
CA C 1.0261 0.219652 0.411543 0.1436 Uiso
C C 1.02357 0.23679 0.430209 0.1348 Uiso
O O 1.02453 0.250107 0.41329 0.1417 Uiso
CB C 1.00957 0.211975 0.39526 0.1763 Uiso
CG1 C 1.00483 0.221575 0.361556 0.2052 Uiso
CG2 C 0.99534 0.211122 0.422901 0.1724 Uiso
CD1 C 0.993545 0.211682 0.337145 0.2457 Uiso
N N 1.02117 0.236484 0.465051 0.1272 Uiso
CA C 1.01892 0.252119 0.484881 0.1381 Uiso
C C 1.03399 0.2559 0.508445 0.1377 Uiso
O O 1.03304 0.266608 0.532088 0.1358 Uiso
CB C 1.00228 0.251801 0.50585 0.1672 Uiso
CG C 0.986453 0.254016 0.482657 0.1816 Uiso
CD1 C 0.970474 0.250935 0.504368 0.1910 Uiso
CD2 C 0.986606 0.271777 0.466242 0.1958 Uiso
N N 1.04785 0.246542 0.502938 0.1260 Uiso
CA C 1.06346 0.249458 0.522848 0.1254 Uiso
C C 1.06083 0.251342 0.5628 0.1241 Uiso
O O 1.06602 0.263985 0.578607 0.1408 Uiso
CB C 1.07253 0.265118 0.507624 0.1211 Uiso
CG C 1.08007 0.261859 0.470929 0.1299 Uiso
CD C 1.09471 0.249407 0.472411 0.1340 Uiso
OE1 O 1.10911 0.254347 0.479613 0.1299 Uiso
NE2 N 1.09101 0.233021 0.466719 0.1367 Uiso
N N 1.05313 0.238445 0.578792 0.1288 Uiso
CA C 1.04968 0.238356 0.616494 0.1397 Uiso
C C 1.06608 0.234485 0.636801 0.1512 Uiso
O O 1.07568 0.222632 0.628143 0.1360 Uiso
CB C 1.03513 0.226095 0.624542 0.1549 Uiso
CG1 C 1.0186 0.233849 0.610272 0.1386 Uiso
CG2 C 1.03408 0.222263 0.664018 0.1688 Uiso
CD1 C 1.00358 0.222059 0.611781 0.1520 Uiso
N N 1.0693 0.245053 0.663303 0.1559 Uiso
CA C 1.08494 0.244391 0.684113 0.1686 Uiso
C C 1.08579 0.231162 0.713978 0.1624 Uiso
O O 1.07396 0.229532 0.735477 0.1755 Uiso
CB C 1.0886 0.262457 0.697484 0.1681 Uiso
CG C 1.10561 0.263871 0.715011 0.1579 Uiso
CG C 1.10677 0.26466 0.710616 0.1857 Uiso
OD1 O 1.10668 0.263209 0.747153 0.1703 Uiso
OD1 O 1.11553 0.252386 0.71885 0.2087 Uiso
ND2 N 1.11904 0.265602 0.694201 0.1479 Uiso
ND2 N 1.11218 0.280499 0.714031 0.2042 Uiso
N N 1.10026 0.22225 0.715885 0.1525 Uiso
CA C 1.10332 0.209034 0.742361 0.1606 Uiso
C C 1.10659 0.215833 0.779904 0.1678 Uiso
O O 1.10629 0.20608 0.8054 0.1844 Uiso
CB C 1.11828 0.197855 0.730764 0.1408 Uiso
OG O 1.13369 0.207302 0.730632 0.1389 Uiso
N N 1.11004 0.232346 0.783081 0.1969 Uiso
CA C 1.11317 0.240329 0.817579 0.2401 Uiso
C C 1.09726 0.239476 0.840587 0.2418 Uiso
O O 1.09849 0.237324 0.872887 0.2457 Uiso
CB C 1.11866 0.258982 0.812813 0.2752 Uiso
CG C 1.12014 0.269587 0.846358 0.3651 Uiso
CD C 1.13549 0.264724 0.868757 0.4343 Uiso
NE N 1.15164 0.266506 0.849615 0.4868 Uiso
CZ C 1.16563 0.257594 0.856975 0.5105 Uiso
NH1 N 1.16557 0.246224 0.883213 0.5375 Uiso
NH2 N 1.17967 0.259975 0.838071 0.5081 Uiso
N N 1.08234 0.239871 0.82388 0.2229 Uiso
CA C 1.06654 0.239591 0.843923 0.2266 Uiso
C C 1.05323 0.226833 0.833438 0.2006 Uiso
O O 1.04405 0.220276 0.85589 0.2104 Uiso
CB C 1.05741 0.256792 0.840692 0.2708 Uiso
CG C 1.06826 0.271968 0.845379 0.3432 Uiso
CD1 C 1.07518 0.281836 0.819167 0.3688 Uiso
CD2 C 1.07364 0.279124 0.878129 0.3807 Uiso
NE1 N 1.08463 0.29472 0.833941 0.3982 Uiso
CE2 C 1.08393 0.293358 0.870054 0.4047 Uiso
CE3 C 1.07084 0.274858 0.913687 0.4112 Uiso
CZ2 C 1.09148 0.303467 0.896398 0.4475 Uiso
CZ3 C 1.07833 0.284853 0.939924 0.4467 Uiso
CH2 C 1.08854 0.299011 0.931108 0.4567 Uiso
N N 1.05275 0.222199 0.799205 0.1881 Uiso
CA C 1.0372 0.213439 0.787396 0.1692 Uiso
C C 1.03935 0.194519 0.7794 0.1639 Uiso
O O 1.02651 0.185225 0.779533 0.1678 Uiso
CB C 1.03061 0.222122 0.754566 0.1720 Uiso
CG C 1.02856 0.241106 0.761423 0.1662 Uiso
CD1 C 1.03874 0.253596 0.749615 0.1674 Uiso
CD2 C 1.01535 0.248656 0.782048 0.1654 Uiso
NE1 N 1.03228 0.269231 0.762774 0.1772 Uiso
CE2 C 1.01842 0.266137 0.782048 0.1763 Uiso
CE3 C 1.00122 0.242226 0.800714 0.1863 Uiso
CZ2 C 1.008 0.277825 0.800237 0.1764 Uiso
CZ3 C 0.990858 0.254029 0.818744 0.1783 Uiso
CH2 C 0.994156 0.271115 0.818479 0.1836 Uiso
N N 1.05442 0.188013 0.771987 0.1633 Uiso
CA C 1.05631 0.170074 0.764124 0.1549 Uiso
C C 1.07317 0.163861 0.778818 0.1595 Uiso
O O 1.08452 0.174008 0.787502 0.1591 Uiso
CB C 1.05518 0.166993 0.724092 0.1459 Uiso
SG S 1.0716 0.177777 0.69804 0.1410 Uiso
N N 1.07453 0.147156 0.782498 0.1568 Uiso
CA C 1.08991 0.139441 0.796213 0.1687 Uiso
C C 1.10096 0.13184 0.76693 0.1527 Uiso
O O 1.09497 0.120954 0.746835 0.1487 Uiso
CB C 1.0855 0.125397 0.822768 0.1833 Uiso
CG C 1.10131 0.117733 0.839819 0.2379 Uiso
OD1 O 1.11323 0.126925 0.849456 0.2651 Uiso
ND2 N 1.10173 0.100914 0.842784 0.2969 Uiso
N N 1.1168 0.13776 0.764044 0.1345 Uiso
CA C 1.12844 0.130592 0.738019 0.1334 Uiso
C C 1.14358 0.121973 0.755546 0.1484 Uiso
O O 1.15546 0.11646 0.73786 0.1629 Uiso
CB C 1.13431 0.14377 0.710907 0.1384 Uiso
CG C 1.14444 0.15831 0.726846 0.1254 Uiso
OD1 O 1.14837 0.158475 0.758961 0.1456 Uiso
OD2 O 1.1484 0.170087 0.706353 0.1411 Uiso
N N 1.14303 0.120941 0.790573 0.1682 Uiso
CA C 1.15659 0.112869 0.810351 0.1873 Uiso
C C 1.17359 0.122087 0.811066 0.2126 Uiso
O O 1.18595 0.115123 0.825098 0.2449 Uiso
N N 1.17458 0.137569 0.796901 0.1858 Uiso
CA C 1.19075 0.146711 0.796954 0.2021 Uiso
C C 1.18935 0.165796 0.803705 0.2080 Uiso
O O 1.19999 0.175765 0.791182 0.2351 Uiso
CB C 1.20029 0.143693 0.76235 0.2028 Uiso
CG C 1.19171 0.151383 0.730526 0.2124 Uiso
CD C 1.20416 0.152224 0.700528 0.2328 Uiso
NE N 1.19856 0.163784 0.672835 0.2449 Uiso
CZ C 1.20451 0.163517 0.639845 0.2663 Uiso
NH1 N 1.21642 0.152173 0.630897 0.2798 Uiso
NH2 N 1.19861 0.174518 0.615885 0.2381 Uiso
N N 1.17639 0.170991 0.823324 0.2020 Uiso
CA C 1.17415 0.188892 0.832008 0.1992 Uiso
C C 1.17237 0.189057 0.872278 0.2311 Uiso
O O 1.15828 0.188434 0.886469 0.2404 Uiso
CB C 1.15793 0.196327 0.814508 0.1899 Uiso
OG1 O 1.15779 0.192088 0.777521 0.1665 Uiso
CG2 C 1.15742 0.215604 0.818585 0.1690 Uiso
N N 1.18675 0.188421 0.891182 0.2617 Uiso
CA C 1.18731 0.188383 0.929917 0.2875 Uiso
C C 1.17587 0.201662 0.946676 0.3092 Uiso
O O 1.17546 0.216431 0.935265 0.3247 Uiso
CB C 1.20589 0.19224 0.937383 0.3026 Uiso
CG C 1.21465 0.182984 0.907783 0.3033 Uiso
CD C 1.20406 0.187988 0.876223 0.2717 Uiso
N N 1.16627 0.196098 0.973178 0.3307 Uiso
CA C 1.15478 0.207519 0.991712 0.3540 Uiso
C C 1.14062 0.214853 0.968916 0.3620 Uiso
O O 1.13566 0.229532 0.973761 0.3998 Uiso
N N 1.13467 0.205049 0.94326 0.3451 Uiso
CA C 1.12098 0.210829 0.920465 0.3369 Uiso
C C 1.10448 0.202401 0.932538 0.3341 Uiso
O O 1.10459 0.189643 0.951733 0.3298 Uiso
CB C 1.12461 0.206373 0.881704 0.3383 Uiso
OG O 1.12289 0.188637 0.875217 0.3403 Uiso
N N 1.09032 0.210027 0.922212 0.3168 Uiso
CA C 1.07373 0.20333 0.931426 0.3142 Uiso
C C 1.06738 0.193857 0.899072 0.2894 Uiso
O O 1.07503 0.194749 0.870319 0.2923 Uiso
CB C 1.06157 0.217832 0.941089 0.3434 Uiso
CG C 1.06682 0.227623 0.974237 0.4111 Uiso
CD C 1.05614 0.222479 1.00638 0.4896 Uiso
NE N 1.03972 0.23143 1.00733 0.5484 Uiso
CZ C 1.02678 0.227432 1.02865 0.5798 Uiso
NH1 N 1.02798 0.214458 1.05112 0.5775 Uiso
NH2 N 1.0125 0.236484 1.02753 0.5959 Uiso
N N 1.05369 0.184385 0.904049 0.2522 Uiso
CA C 1.04585 0.174632 0.875747 0.2289 Uiso
C C 1.02688 0.177879 0.880459 0.2151 Uiso
O O 1.01693 0.166191 0.886972 0.2059 Uiso
CB C 1.05002 0.155712 0.879797 0.2168 Uiso
CG C 1.04231 0.14489 0.850727 0.2053 Uiso
OD1 O 1.03449 0.151383 0.825998 0.2135 Uiso
ND2 N 1.04423 0.128224 0.853983 0.2076 Uiso
N N 1.02203 0.19401 0.87715 0.2139 Uiso
CA C 1.00437 0.199205 0.882074 0.2149 Uiso
C C 0.991444 0.190713 0.857928 0.2073 Uiso
O O 0.976624 0.189032 0.867804 0.2295 Uiso
CB C 1.00283 0.218596 0.880751 0.2361 Uiso
CG C 1.01231 0.227228 0.911224 0.2600 Uiso
CD1 C 1.01197 0.24653 0.907306 0.2660 Uiso
CD2 C 1.00419 0.221715 0.946146 0.2847 Uiso
N N 0.996766 0.185098 0.826713 0.1904 Uiso
CA C 0.984874 0.176427 0.803308 0.1871 Uiso
C C 0.985002 0.157266 0.809292 0.1983 Uiso
O O 0.97516 0.147984 0.79293 0.2025 Uiso
CB C 0.988427 0.180616 0.764494 0.1777 Uiso
SG S 0.982455 0.202401 0.754222 0.1852 Uiso
N N 0.996295 0.151358 0.832379 0.2138 Uiso
CA C 0.99753 0.133291 0.840798 0.2447 Uiso
C C 0.999936 0.121947 0.809027 0.2314 Uiso
O O 0.990489 0.109661 0.803547 0.2192 Uiso
CB C 0.981946 0.127422 0.861503 0.3143 Uiso
CG C 0.985562 0.126161 0.900396 0.3945 Uiso
OD1 O 0.9959 0.11553 0.911728 0.4514 Uiso
ND2 N 0.97777 0.137353 0.921179 0.4258 Uiso
N N 1.01287 0.125919 0.788164 0.2106 Uiso
CA C 1.01655 0.115976 0.756658 0.2206 Uiso
C C 1.03529 0.116765 0.747365 0.2016 Uiso
O O 1.04433 0.128657 0.75777 0.1809 Uiso
CB C 1.00745 0.12294 0.722715 0.2246 Uiso
CG1 C 1.00992 0.142216 0.719829 0.2457 Uiso
CG2 C 0.98914 0.11702 0.720571 0.2532 Uiso
CD1 C 1.00615 0.149397 0.683425 0.2764 Uiso
N N 1.04174 0.103231 0.73042 0.1902 Uiso
CA C 1.0597 0.103804 0.7202 0.1778 Uiso
C C 1.0597 0.116243 0.6888 0.1539 Uiso
O O 1.04732 0.117083 0.668519 0.1439 Uiso
CB C 1.06337 0.0855081 0.708498 0.1872 Uiso
CG C 1.04615 0.0785946 0.697749 0.2220 Uiso
CD C 1.03439 0.0861574 0.725098 0.2067 Uiso
N N 1.07304 0.126391 0.68557 0.1383 Uiso
CA C 1.07386 0.13869 0.656764 0.1279 Uiso
C C 1.07269 0.130147 0.620571 0.1375 Uiso
O O 1.06618 0.137697 0.595075 0.1465 Uiso
CB C 1.09005 0.149295 0.65965 0.1203 Uiso
SG S 1.09153 0.161378 0.700661 0.1294 Uiso
N N 1.07852 0.114295 0.618321 0.1349 Uiso
CA C 1.07782 0.105026 0.584934 0.1598 Uiso
C C 1.05955 0.103511 0.571061 0.1597 Uiso
O O 1.05677 0.10318 0.538919 0.1726 Uiso
CB C 1.08571 0.0873924 0.589038 0.1573 Uiso
OG O 1.07722 0.0781236 0.615779 0.1924 Uiso
N N 1.04708 0.103155 0.594969 0.1621 Uiso
CA C 1.02909 0.102034 0.584352 0.1835 Uiso
C C 1.02399 0.117427 0.561688 0.1852 Uiso
O O 1.01238 0.116383 0.539422 0.2024 Uiso
CB C 1.01771 0.100863 0.616917 0.1824 Uiso
N N 1.0329 0.131598 0.566957 0.1614 Uiso
CA C 1.02959 0.147271 0.547709 0.1662 Uiso
C C 1.03635 0.1475 0.509795 0.1643 Uiso
O O 1.03355 0.159825 0.490627 0.1825 Uiso
CB C 1.03715 0.162257 0.568228 0.1605 Uiso
CG C 1.02986 0.16451 0.605374 0.1887 Uiso
CD1 C 1.03994 0.178057 0.62531 0.1923 Uiso
CD2 C 1.011 0.169043 0.602964 0.1812 Uiso
N N 1.04484 0.133915 0.498464 0.1625 Uiso
CA C 1.05198 0.133368 0.462959 0.1587 Uiso
C C 1.04191 0.122113 0.438204 0.1755 Uiso
O O 1.04587 0.120979 0.40646 0.1887 Uiso
CB C 1.07046 0.126964 0.464124 0.1673 Uiso
CG C 1.08238 0.13692 0.48872 0.1866 Uiso
CD1 C 1.09987 0.128924 0.487741 0.2109 Uiso
CD2 C 1.08352 0.155381 0.477098 0.1730 Uiso
N N 1.0289 0.11385 0.452819 0.1869 Uiso
CA C 1.01771 0.102378 0.433068 0.1891 Uiso
C C 1.00853 0.110743 0.40217 0.1887 Uiso
O O 1.00527 0.125945 0.402673 0.1891 Uiso
CB C 1.00439 0.0948152 0.458167 0.1892 Uiso
OG O 0.992272 0.0851643 0.439025 0.2401 Uiso
N N 1.00427 0.100672 0.375377 0.1968 Uiso
CA C 0.994844 0.107114 0.345115 0.2025 Uiso
C C 0.976802 0.111558 0.35687 0.2123 Uiso
O O 0.967966 0.121412 0.339687 0.2394 Uiso
CB C 0.994665 0.0937584 0.315567 0.2021 Uiso
CB C 0.994729 0.0940767 0.315064 0.2092 Uiso
OG O 0.989904 0.0776143 0.328302 0.1836 Uiso
OG O 1.0117 0.0921415 0.302144 0.2137 Uiso
N N 0.971519 0.104288 0.386603 0.2182 Uiso
CA C 0.954776 0.107433 0.402197 0.2238 Uiso
C C 0.957857 0.122495 0.426978 0.2110 Uiso
O O 0.967839 0.121209 0.452078 0.2125 Uiso
CB C 0.949136 0.0918868 0.42359 0.2494 Uiso
CG C 0.930853 0.093351 0.437092 0.3024 Uiso
OD1 O 0.925199 0.107573 0.445379 0.2984 Uiso
OD2 O 0.92194 0.0802371 0.43876 0.3499 Uiso
N N 0.949301 0.136716 0.420227 0.1959 Uiso
CA C 0.952 0.152007 0.441673 0.1748 Uiso
C C 0.94254 0.152784 0.476542 0.1692 Uiso
O O 0.944247 0.165172 0.496054 0.1596 Uiso
CB C 0.948206 0.168457 0.420836 0.1782 Uiso
CG1 C 0.929197 0.16973 0.411781 0.1748 Uiso
CG2 C 0.959423 0.169208 0.387529 0.1873 Uiso
CD1 C 0.924308 0.186295 0.394466 0.1983 Uiso
N N 0.932597 0.139759 0.484776 0.1671 Uiso
CA C 0.922819 0.139657 0.517473 0.1714 Uiso
C C 0.932686 0.145068 0.550701 0.1665 Uiso
O O 0.926867 0.156133 0.570478 0.1693 Uiso
CB C 0.914505 0.122151 0.523245 0.1869 Uiso
OG1 O 0.90409 0.118178 0.49346 0.2149 Uiso
CG2 C 0.90339 0.122456 0.555652 0.2106 Uiso
N N 0.947544 0.137544 0.556896 0.1484 Uiso
CA C 0.957373 0.141745 0.588588 0.1595 Uiso
C C 0.962683 0.160283 0.587873 0.1536 Uiso
O O 0.961664 0.168979 0.614958 0.1749 Uiso
CB C 0.973008 0.130185 0.591871 0.1595 Uiso
N N 0.968641 0.166229 0.557293 0.1382 Uiso
CA C 0.97395 0.184003 0.553693 0.1431 Uiso
C C 0.959143 0.196226 0.561159 0.1455 Uiso
O O 0.96104 0.208932 0.580089 0.1496 Uiso
CB C 0.981411 0.187275 0.516785 0.1397 Uiso
OG O 0.998587 0.181787 0.51517 0.1551 Uiso
N N 0.944336 0.19219 0.546623 0.1481 Uiso
CA C 0.929427 0.202821 0.551998 0.1591 Uiso
C C 0.923735 0.202872 0.59068 0.1667 Uiso
O O 0.920476 0.216444 0.605559 0.1648 Uiso
CB C 0.914708 0.197282 0.527587 0.1790 Uiso
CG1 C 0.898131 0.206742 0.537622 0.1904 Uiso
CG2 C 0.919534 0.200924 0.489382 0.1855 Uiso
N N 0.922691 0.187912 0.607174 0.1559 Uiso
CA C 0.917331 0.18688 0.644188 0.1823 Uiso
C C 0.929134 0.196735 0.668413 0.1771 Uiso
O O 0.923366 0.205214 0.693036 0.1830 Uiso
CB C 0.91616 0.168419 0.656923 0.2205 Uiso
CG C 0.901836 0.158666 0.639104 0.2843 Uiso
OD1 O 0.890377 0.166254 0.623245 0.2902 Uiso
ND2 N 0.902473 0.141682 0.641566 0.3141 Uiso
N N 0.945673 0.195564 0.661582 0.1577 Uiso
CA C 0.957972 0.204667 0.683028 0.1473 Uiso
C C 0.956877 0.22379 0.675615 0.1421 Uiso
O O 0.957641 0.234129 0.700025 0.1432 Uiso
CB C 0.975822 0.197906 0.67572 0.1546 Uiso
SG S 0.992093 0.206271 0.705082 0.1771 Uiso
N N 0.954636 0.228463 0.642017 0.1401 Uiso
CA C 0.953197 0.246364 0.631744 0.1382 Uiso
C C 0.93797 0.25464 0.650648 0.1473 Uiso
O O 0.938657 0.269447 0.661053 0.1532 Uiso
CB C 0.951326 0.247943 0.591871 0.1301 Uiso
N N 0.924206 0.245066 0.655202 0.1525 Uiso
CA C 0.90931 0.251763 0.673523 0.1627 Uiso
C C 0.913868 0.256473 0.71149 0.1691 Uiso
O O 0.907833 0.26918 0.725019 0.1950 Uiso
CB C 0.894846 0.238661 0.673258 0.1750 Uiso
CG C 0.886532 0.236713 0.637489 0.1779 Uiso
CD C 0.872693 0.223294 0.638125 0.2066 Uiso
CE C 0.865015 0.221486 0.601217 0.2325 Uiso
NZ N 0.853493 0.206564 0.59796 0.2398 Uiso
N N 0.924436 0.246211 0.728831 0.1747 Uiso
CA C 0.929401 0.250095 0.765315 0.2006 Uiso
C C 0.940771 0.265819 0.76603 0.1863 Uiso
O O 0.939065 0.276832 0.788773 0.1844 Uiso
CB C 0.938785 0.235096 0.782578 0.2380 Uiso
CG C 0.927886 0.219207 0.78774 0.3271 Uiso
CD C 0.936506 0.206373 0.812257 0.3739 Uiso
CE C 0.925734 0.19014 0.816493 0.4154 Uiso
NZ N 0.92385 0.180081 0.783028 0.4397 Uiso
N N 0.952471 0.266761 0.740772 0.1603 Uiso
CA C 0.964261 0.281123 0.738707 0.1578 Uiso
C C 0.954776 0.297929 0.733571 0.1465 Uiso
O O 0.95722 0.30977 0.753639 0.1474 Uiso
CB C 0.977579 0.278512 0.708154 0.1617 Uiso
CG1 C 0.988643 0.262852 0.71562 0.1487 Uiso
CG2 C 0.988681 0.2943 0.703229 0.1367 Uiso
CD1 C 1.00008 0.258141 0.685199 0.1435 Uiso
N N 0.943406 0.298629 0.70773 0.1558 Uiso
CA C 0.934125 0.314213 0.699972 0.1662 Uiso
C C 0.921876 0.319662 0.729626 0.2080 Uiso
O O 0.916173 0.33433 0.730632 0.2050 Uiso
CB C 0.924843 0.312863 0.664018 0.1601 Uiso
CG1 C 0.909374 0.301252 0.666825 0.1570 Uiso
CG2 C 0.920081 0.330281 0.650542 0.1759 Uiso
N N 0.918006 0.307923 0.753692 0.2211 Uiso
CA C 0.906814 0.311565 0.783637 0.2660 Uiso
C C 0.917331 0.31709 0.815726 0.2962 Uiso
O O 0.910367 0.322642 0.842493 0.3195 Uiso
CB C 0.896782 0.295624 0.7933 0.2363 Uiso
OG O 0.885883 0.290773 0.765368 0.2662 Uiso
N N 0.934125 0.315715 0.812072 0.3359 Uiso
CA C 0.946615 0.31965 0.839554 0.3658 Uiso
C C 0.947213 0.338035 0.852607 0.3724 Uiso
O O 0.955807 0.341816 0.878791 0.3886 Uiso
CB C 0.964185 0.314468 0.826078 0.3979 Uiso
CG C 0.977172 0.313169 0.855069 0.4637 Uiso
OD1 O 0.973759 0.304257 0.881677 0.4884 Uiso
OD2 O 0.991049 0.320757 0.85078 0.5027 Uiso
N N 0.938594 0.349608 0.834259 0.3673 Uiso
CA C 0.938772 0.367293 0.845935 0.3511 Uiso
C C 0.945736 0.380292 0.819882 0.3402 Uiso
O O 0.939689 0.394883 0.819565 0.3432 Uiso
N N 0.958303 0.375428 0.798304 0.3047 Uiso
CA C 0.965484 0.387269 0.772358 0.2714 Uiso
C C 0.958366 0.384659 0.735265 0.2159 Uiso
O O 0.963739 0.393024 0.71006 0.1964 Uiso
CB C 0.984785 0.385983 0.771855 0.3312 Uiso
CG C 0.992361 0.388963 0.807915 0.4025 Uiso
OD1 O 0.99068 0.402828 0.822848 0.4319 Uiso
ND2 N 1.00017 0.37576 0.823033 0.4288 Uiso
N N 0.946118 0.373188 0.732114 0.1817 Uiso
CA C 0.938403 0.36989 0.69804 0.1695 Uiso
C C 0.951351 0.363562 0.671246 0.1593 Uiso
O O 0.963446 0.354701 0.68038 0.1698 Uiso
N N 0.949314 0.368833 0.638125 0.1453 Uiso
CA C 0.960887 0.363091 0.610457 0.1324 Uiso
C C 0.978126 0.371685 0.610722 0.1363 Uiso
O O 0.989292 0.36728 0.589806 0.1215 Uiso
CB C 0.952522 0.364263 0.574159 0.1203 Uiso
CG C 0.939485 0.350168 0.56844 0.1264 Uiso
SD S 0.933259 0.347838 0.523086 0.1517 Uiso
CE C 0.951491 0.336354 0.506009 0.1587 Uiso
N N 0.980342 0.383972 0.63455 0.1417 Uiso
CA C 0.996651 0.392795 0.637674 0.1477 Uiso
C C 1.01035 0.380241 0.64935 0.1435 Uiso
O O 1.0255 0.383984 0.64612 0.1529 Uiso
CB C 0.995506 0.407895 0.663091 0.1458 Uiso
CG C 0.984327 0.422066 0.648688 0.1560 Uiso
OD1 O 0.988236 0.429934 0.621312 0.1634 Uiso
ND2 N 0.970118 0.425134 0.666427 0.1693 Uiso
N N 1.00486 0.365345 0.662191 0.1455 Uiso
CA C 1.01653 0.351836 0.673073 0.1484 Uiso
C C 1.02711 0.345865 0.641169 0.1567 Uiso
O O 1.04101 0.338849 0.645432 0.1896 Uiso
CB C 1.00663 0.337054 0.688561 0.1583 Uiso
N N 1.02035 0.34836 0.609292 0.1340 Uiso
CA C 1.02921 0.343662 0.576727 0.1364 Uiso
C C 1.03741 0.359577 0.561715 0.1450 Uiso
O O 1.02871 0.370845 0.547815 0.1336 Uiso
CB C 1.01704 0.335768 0.549801 0.1350 Uiso
CG C 1.01229 0.31802 0.559676 0.1339 Uiso
CD1 C 1.02158 0.303607 0.55319 0.1358 Uiso
CD2 C 0.997275 0.312622 0.578024 0.1217 Uiso
NE1 N 1.0132 0.289666 0.566163 0.1346 Uiso
CE2 C 0.998243 0.294771 0.581466 0.1346 Uiso
CE3 C 0.983079 0.321127 0.591924 0.1283 Uiso
CZ2 C 0.985562 0.285159 0.598411 0.1192 Uiso
CZ3 C 0.970462 0.311552 0.608816 0.1279 Uiso
CH2 C 0.971837 0.293753 0.611754 0.1158 Uiso
N N 1.05426 0.360239 0.564071 0.1534 Uiso
CA C 1.06386 0.374906 0.55176 0.1584 Uiso
C C 1.06063 0.37935 0.512787 0.1517 Uiso
O O 1.05816 0.39431 0.50405 0.1600 Uiso
CB C 1.08329 0.372233 0.557611 0.1743 Uiso
CB C 1.08313 0.372436 0.558299 0.1758 Uiso
CG1 C 1.09339 0.387358 0.543155 0.1899 Uiso
CG1 C 1.09014 0.358444 0.534471 0.1706 Uiso
CG2 C 1.08704 0.369725 0.596901 0.1736 Uiso
CG2 C 1.09256 0.389255 0.553401 0.1910 Uiso
N N 1.05973 0.366592 0.489727 0.1550 Uiso
CA C 1.05676 0.370132 0.45221 0.1539 Uiso
C C 1.03895 0.377364 0.446385 0.1472 Uiso
O O 1.03629 0.387638 0.422689 0.1532 Uiso
CB C 1.05948 0.354255 0.429785 0.1617 Uiso
N N 1.02667 0.371774 0.467593 0.1406 Uiso
CA C 1.0095 0.378471 0.463992 0.1239 Uiso
C C 1.00985 0.397264 0.474159 0.1335 Uiso
O O 1.00298 0.408124 0.455281 0.1246 Uiso
CB C 0.996817 0.36919 0.487979 0.1083 Uiso
CG C 0.979552 0.377173 0.485755 0.1089 Uiso
CD1 C 0.967737 0.37483 0.45957 0.1294 Uiso
CD2 C 0.972461 0.389599 0.509425 0.1194 Uiso
NE1 N 0.953821 0.385079 0.465369 0.1210 Uiso
CE2 C 0.956317 0.394195 0.495816 0.1115 Uiso
CE3 C 0.978114 0.397264 0.540958 0.1160 Uiso
CZ2 C 0.945825 0.406125 0.512602 0.1244 Uiso
CZ3 C 0.967648 0.409066 0.557638 0.1170 Uiso
CH2 C 0.951695 0.41337 0.54334 0.1163 Uiso
N N 1.01772 0.401045 0.504235 0.1313 Uiso
CA C 1.0187 0.418488 0.516759 0.1643 Uiso
C C 1.02778 0.430227 0.490203 0.1644 Uiso
O O 1.02175 0.444245 0.482075 0.1672 Uiso
CB C 1.02805 0.418959 0.552131 0.1918 Uiso
CG C 1.02535 0.435256 0.572173 0.2891 Uiso
CD C 1.03786 0.436809 0.602567 0.3642 Uiso
NE N 1.04138 0.42022 0.618347 0.4359 Uiso
CZ C 1.05694 0.414032 0.623404 0.4622 Uiso
NH1 N 1.07045 0.423237 0.613952 0.4671 Uiso
NH2 N 1.05897 0.398588 0.637118 0.4768 Uiso
N N 1.04184 0.424141 0.475482 0.1515 Uiso
CA C 1.05168 0.43448 0.451098 0.1555 Uiso
C C 1.04628 0.434543 0.412867 0.1505 Uiso
O O 1.04964 0.446919 0.394201 0.1629 Uiso
CB C 1.07043 0.429527 0.453269 0.1510 Uiso
CG C 1.07821 0.434238 0.488403 0.1627 Uiso
OD1 O 1.07321 0.446919 0.504553 0.1863 Uiso
ND2 N 1.09033 0.424167 0.500635 0.1570 Uiso
N N 1.03714 0.421442 0.401429 0.1422 Uiso
CA C 1.03253 0.420003 0.364336 0.1522 Uiso
C C 1.01384 0.417724 0.355043 0.1602 Uiso
O O 1.00917 0.419685 0.324278 0.1820 Uiso
CB C 1.04303 0.405616 0.348318 0.1487 Uiso
CG C 1.06185 0.407449 0.357452 0.1620 Uiso
CD C 1.07225 0.392986 0.343685 0.1624 Uiso
NE N 1.07407 0.39347 0.305268 0.1758 Uiso
CZ C 1.0837 0.382558 0.287291 0.1749 Uiso
NH1 N 1.09219 0.370565 0.30458 0.1762 Uiso
NH2 N 1.08474 0.38359 0.25229 0.1843 Uiso
N N 1.00323 0.413752 0.381122 0.1397 Uiso
CA C 0.985142 0.411116 0.374503 0.1360 Uiso
C C 0.973912 0.424116 0.39248 0.1411 Uiso
O O 0.961486 0.430061 0.376992 0.1624 Uiso
CB C 0.979794 0.393546 0.387185 0.1237 Uiso
SG S 0.991941 0.376727 0.366507 0.1397 Uiso
N N 0.977986 0.42791 0.425655 0.1408 Uiso
CA C 0.968399 0.43998 0.447021 0.1515 Uiso
C C 0.965598 0.45662 0.427402 0.1720 Uiso
O O 0.977783 0.464463 0.414508 0.1712 Uiso
CB C 0.977935 0.443519 0.481519 0.1468 Uiso
CG C 0.967699 0.453348 0.508842 0.1379 Uiso
CD C 0.977834 0.455513 0.54297 0.1425 Uiso
CE C 0.966808 0.462694 0.572861 0.1535 Uiso
NZ N 0.97614 0.463267 0.607412 0.1649 Uiso
N N 0.949428 0.461624 0.424913 0.2106 Uiso
CA C 0.944743 0.477488 0.40773 0.2305 Uiso
C C 0.945367 0.477692 0.367672 0.2501 Uiso
O O 0.944043 0.49129 0.351601 0.2807 Uiso
N N 0.948321 0.463025 0.351284 0.2290 Uiso
CA C 0.948843 0.462032 0.312814 0.2109 Uiso
C C 0.931897 0.454749 0.300397 0.2156 Uiso
O O 0.921138 0.449936 0.321895 0.1953 Uiso
CB C 0.963434 0.450318 0.299735 0.2140 Uiso
OG1 O 0.959627 0.432952 0.308366 0.1949 Uiso
CG2 C 0.980495 0.455678 0.316574 0.2004 Uiso
N N 0.929376 0.453921 0.265766 0.2247 Uiso
CA C 0.913639 0.446982 0.251787 0.2467 Uiso
C C 0.915345 0.427719 0.252449 0.2371 Uiso
O O 0.919572 0.419901 0.225576 0.2465 Uiso
CB C 0.910812 0.453196 0.21382 0.3074 Uiso
CG C 0.89477 0.445773 0.197087 0.3655 Uiso
OD1 O 0.88214 0.442488 0.216309 0.4047 Uiso
OD2 O 0.894872 0.443163 0.164442 0.4212 Uiso
N N 0.91192 0.420029 0.282975 0.2135 Uiso
CA C 0.913741 0.401631 0.286709 0.2119 Uiso
C C 0.900703 0.391012 0.26656 0.2223 Uiso
O O 0.903606 0.375925 0.259809 0.2102 Uiso
CB C 0.914785 0.395991 0.326078 0.2053 Uiso
CG1 C 0.931222 0.40256 0.342811 0.2012 Uiso
CG2 C 0.899608 0.402306 0.346386 0.2161 Uiso
N N 0.886494 0.398792 0.256314 0.2329 Uiso
CA C 0.873368 0.389803 0.236404 0.2439 Uiso
C C 0.880739 0.383526 0.2009 0.2342 Uiso
O O 0.875061 0.370616 0.186285 0.2346 Uiso
CB C 0.858013 0.401682 0.230606 0.2984 Uiso
CG C 0.841754 0.393088 0.2166 0.3892 Uiso
CD C 0.841716 0.390414 0.176304 0.4542 Uiso
OE1 O 0.847089 0.401593 0.156129 0.4904 Uiso
NE2 N 0.835312 0.375645 0.164495 0.4676 Uiso
N N 0.89365 0.3924 0.187477 0.2253 Uiso
CA C 0.901862 0.387651 0.154223 0.2102 Uiso
C C 0.909144 0.369635 0.155308 0.2190 Uiso
O O 0.910685 0.361309 0.127906 0.2133 Uiso
CB C 0.915803 0.400167 0.14538 0.2213 Uiso
N N 0.913652 0.363524 0.186815 0.2050 Uiso
CA C 0.920731 0.346361 0.190574 0.2124 Uiso
C C 0.907871 0.332318 0.183505 0.2172 Uiso
O O 0.912557 0.317778 0.176463 0.2196 Uiso
CB C 0.928905 0.344057 0.227085 0.1972 Uiso
CG C 0.944743 0.354051 0.229415 0.2026 Uiso
CD1 C 0.94678 0.369572 0.245168 0.1973 Uiso
CD2 C 0.960531 0.350232 0.212338 0.1997 Uiso
NE1 N 0.962823 0.37576 0.238628 0.1918 Uiso
CE2 C 0.971557 0.364148 0.218506 0.2005 Uiso
CE3 C 0.966438 0.33643 0.192163 0.2063 Uiso
CZ2 C 0.988147 0.364708 0.205136 0.1969 Uiso
CZ3 C 0.982952 0.336991 0.178739 0.2029 Uiso
CH2 C 0.993583 0.351098 0.185385 0.2109 Uiso
N N 0.891562 0.336545 0.185253 0.2180 Uiso
CA C 0.878651 0.323762 0.178448 0.2313 Uiso
C C 0.86858 0.327696 0.14493 0.2434 Uiso
O O 0.857083 0.318096 0.135107 0.2406 Uiso
CB C 0.866696 0.321572 0.210352 0.2376 Uiso
CG1 C 0.858255 0.33848 0.219645 0.2343 Uiso
CG2 C 0.876716 0.314582 0.242044 0.2389 Uiso
CD1 C 0.844173 0.336761 0.246306 0.3045 Uiso
N N 0.873482 0.34123 0.126396 0.2549 Uiso
CA C 0.864455 0.345788 0.0941487 0.2955 Uiso
C C 0.865792 0.331758 0.0665607 0.2905 Uiso
O O 0.879046 0.323686 0.0627481 0.2954 Uiso
CB C 0.870414 0.363066 0.079375 0.3493 Uiso
CG C 0.889015 0.364466 0.0672755 0.4296 Uiso
CD C 0.891982 0.357311 0.030315 0.4942 Uiso
NE N 0.908992 0.360748 0.0161239 0.5426 Uiso
CZ C 0.923583 0.355388 0.030368 0.5560 Uiso
NH1 N 0.924919 0.352918 0.0649986 0.5660 Uiso
NH2 N 0.937015 0.352816 0.0100344 0.5820 Uiso
N N 0.85143 0.328142 0.0495895 0.2965 Uiso
CA C 0.850819 0.315206 0.0222928 0.2909 Uiso
C C 0.848005 0.297267 0.0353984 0.2890 Uiso
O O 0.844962 0.285668 0.0141647 0.3062 Uiso
N N 0.848884 0.294657 0.0699761 0.2765 Uiso
CA C 0.846656 0.277558 0.0841672 0.2713 Uiso
C C 0.828156 0.272643 0.0892506 0.2847 Uiso
O O 0.817512 0.283325 0.0973258 0.2960 Uiso
CB C 0.856001 0.275635 0.119407 0.2443 Uiso
SG S 0.877913 0.282994 0.119486 0.2386 Uiso
N N 0.824426 0.256333 0.0847232 0.3104 Uiso
CA C 0.807288 0.249827 0.089939 0.3480 Uiso
C C 0.808001 0.242774 0.127588 0.3656 Uiso
O O 0.815742 0.229418 0.133518 0.3831 Uiso
CB C 0.803813 0.235809 0.0626952 0.3687 Uiso
CG C 0.78595 0.228183 0.0642837 0.4172 Uiso
CD C 0.781964 0.217845 0.0311887 0.4414 Uiso
NE N 0.796454 0.207481 0.0200423 0.4984 Uiso
CZ C 0.802361 0.206793 -0.0129997 0.5217 Uiso
NH1 N 0.794964 0.215833 -0.0385491 0.5342 Uiso
NH2 N 0.815883 0.197231 -0.020413 0.5447 Uiso
N N 0.800757 0.252043 0.153058 0.3859 Uiso
CA C 0.801406 0.246886 0.190521 0.4166 Uiso
C C 0.785759 0.238292 0.207122 0.4353 Uiso
O O 0.786166 0.222555 0.211226 0.4463 Uiso
CB C 0.806856 0.261859 0.214058 0.4143 Uiso
CG C 0.825521 0.267194 0.217712 0.4250 Uiso
CD1 C 0.836903 0.251788 0.216547 0.4207 Uiso
CD2 C 0.830282 0.279633 0.189224 0.4439 Uiso
OXT O 0.773625 0.247255 0.218056 0.4456 Uiso
N N -0.042474 0.871738 -0.226476 0.1693 Uiso
CA C -0.030926 0.867282 -0.256447 0.1810 Uiso
C C -0.0307478 0.848082 -0.262934 0.1810 Uiso
O O -0.0304295 0.838062 -0.237782 0.1730 Uiso
CB C -0.012732 0.873393 -0.248319 0.1916 Uiso
CG C 0.000483816 0.867027 -0.273816 0.2130 Uiso
CD C 0.018054 0.873813 -0.265237 0.2253 Uiso
CD C 0.0181686 0.87338 -0.263543 0.2173 Uiso
CE C 0.0312825 0.865525 -0.289066 0.2386 Uiso
CE C 0.0320337 0.864124 -0.284168 0.2295 Uiso
NZ N 0.0483052 0.873737 -0.286233 0.2372 Uiso
NZ N 0.0309897 0.866276 -0.323432 0.2186 Uiso
N N -0.0314098 0.843027 -0.296453 0.1769 Uiso
CA C -0.0307732 0.82505 -0.305772 0.1863 Uiso
C C -0.0127065 0.821879 -0.318904 0.1943 Uiso
O O -0.00730817 0.829238 -0.345274 0.2191 Uiso
CB C -0.0440782 0.820148 -0.334366 0.1782 Uiso
CG1 C -0.0418755 0.801381 -0.345115 0.2006 Uiso
CG2 C -0.062043 0.822885 -0.31999 0.1883 Uiso
N N -0.0029029 0.812139 -0.298835 0.1785 Uiso
CA C 0.0146545 0.808574 -0.308658 0.1921 Uiso
C C 0.0163734 0.795269 -0.337358 0.2007 Uiso
O O 0.00515646 0.784536 -0.342335 0.2040 Uiso
CB C 0.024611 0.802005 -0.276622 0.1835 Uiso
CG C 0.0319191 0.815742 -0.253614 0.1862 Uiso
CD1 C 0.0218863 0.823687 -0.22788 0.1754 Uiso
CD2 C 0.0490055 0.820479 -0.256977 0.1838 Uiso
CE1 C 0.0287871 0.836126 -0.205825 0.1918 Uiso
CE2 C 0.0560845 0.832943 -0.235055 0.1959 Uiso
CZ C 0.0459498 0.840786 -0.209346 0.2058 Uiso
N N 0.0303022 0.796504 -0.356871 0.2119 Uiso
CA C 0.034491 0.782996 -0.381626 0.1969 Uiso
C C 0.043849 0.769704 -0.360551 0.1854 Uiso
O O 0.0506097 0.77374 -0.332063 0.1743 Uiso
N N 0.0444856 0.754043 -0.37265 0.1852 Uiso
CA C 0.0527869 0.740496 -0.352846 0.1853 Uiso
C C 0.0712228 0.744647 -0.343156 0.1877 Uiso
O O 0.0758955 0.744583 -0.311941 0.1782 Uiso
CB C 0.0518702 0.723932 -0.373815 0.1883 Uiso
CG C 0.0596876 0.708832 -0.355309 0.1924 Uiso
CD C 0.0572558 0.692713 -0.376754 0.2280 Uiso
NE N 0.0648441 0.693515 -0.412153 0.2675 Uiso
CZ C 0.0813193 0.690982 -0.41946 0.2847 Uiso
NH1 N 0.0924852 0.68748 -0.393937 0.2699 Uiso
NH2 N 0.0866413 0.691593 -0.45282 0.2912 Uiso
N N 0.081663 0.748492 -0.369818 0.1939 Uiso
CA C 0.0996406 0.752655 -0.363278 0.1977 Uiso
C C 0.102098 0.76964 -0.344401 0.1828 Uiso
O O 0.114104 0.771868 -0.324093 0.1891 Uiso
CB C 0.109826 0.752248 -0.397909 0.2029 Uiso
SG S 0.110412 0.731215 -0.417951 0.2204 Uiso
N N 0.0903717 0.781532 -0.350172 0.1833 Uiso
CA C 0.0914158 0.798147 -0.332963 0.1760 Uiso
C C 0.0892131 0.795791 -0.293169 0.1662 Uiso
O O 0.0980237 0.803647 -0.271989 0.1558 Uiso
CB C 0.077487 0.809911 -0.346836 0.1938 Uiso
CG C 0.0783527 0.827889 -0.332063 0.2031 Uiso
CD C 0.0627942 0.838456 -0.341223 0.2181 Uiso
OE1 O 0.0495402 0.830995 -0.350834 0.2403 Uiso
OE2 O 0.0635454 0.85432 -0.337967 0.2296 Uiso
N N 0.0772705 0.784829 -0.283241 0.1602 Uiso
CA C 0.0742403 0.781201 -0.245936 0.1645 Uiso
C C 0.0894041 0.771435 -0.230157 0.1674 Uiso
O O 0.0951462 0.775191 -0.200715 0.1759 Uiso
CB C 0.0578542 0.770849 -0.241488 0.1612 Uiso
CG C 0.05392 0.76675 -0.20286 0.1603 Uiso
CD1 C 0.051259 0.783301 -0.181547 0.1643 Uiso
CD2 C 0.0382724 0.755622 -0.201271 0.1598 Uiso
N N 0.0956682 0.758767 -0.249616 0.1669 Uiso
CA C 0.110336 0.748709 -0.23802 0.1716 Uiso
C C 0.125206 0.760613 -0.229389 0.1643 Uiso
O O 0.132909 0.759416 -0.201139 0.1726 Uiso
CB C 0.11553 0.735926 -0.267144 0.1631 Uiso
N N 0.128861 0.772454 -0.25335 0.1706 Uiso
CA C 0.142726 0.784524 -0.247869 0.1785 Uiso
C C 0.139581 0.795677 -0.215357 0.1791 Uiso
O O 0.150989 0.798503 -0.193937 0.1858 Uiso
CB C 0.145094 0.79555 -0.280752 0.1886 Uiso
N N 0.123984 0.80189 -0.211412 0.1800 Uiso
CA C 0.119643 0.812636 -0.181308 0.1717 Uiso
C C 0.121489 0.802909 -0.146387 0.1815 Uiso
O O 0.127918 0.809809 -0.120228 0.1779 Uiso
CB C 0.101474 0.819486 -0.185253 0.1868 Uiso
N N 0.115836 0.786917 -0.146016 0.1696 Uiso
CA C 0.116842 0.776566 -0.114218 0.1681 Uiso
C C 0.135099 0.77281 -0.104687 0.1781 Uiso
O O 0.139836 0.773498 -0.0735511 0.1923 Uiso
CB C 0.107063 0.760129 -0.119302 0.1493 Uiso
CG C 0.0880545 0.76279 -0.11811 0.1667 Uiso
SD S 0.0766721 0.743246 -0.123776 0.1804 Uiso
CE C 0.0579433 0.747283 -0.0971412 0.1774 Uiso
N N 0.145412 0.769423 -0.131692 0.1916 Uiso
CA C 0.163428 0.765566 -0.126741 0.2232 Uiso
C C 0.172391 0.78087 -0.110909 0.2221 Uiso
O O 0.181737 0.779227 -0.0848298 0.2220 Uiso
CB C 0.171526 0.760753 -0.162193 0.2449 Uiso
CG C 0.190114 0.755724 -0.160181 0.3055 Uiso
CD C 0.194507 0.744507 -0.191634 0.3447 Uiso
CE C 0.213083 0.739274 -0.191925 0.3925 Uiso
NZ N 0.223816 0.753381 -0.205004 0.4345 Uiso
N N 0.168572 0.795868 -0.125391 0.2348 Uiso
CA C 0.176084 0.811808 -0.113186 0.2449 Uiso
C C 0.17122 0.81503 -0.0748219 0.2385 Uiso
O O 0.181176 0.822223 -0.0545678 0.2315 Uiso
CB C 0.170087 0.826641 -0.13622 0.2722 Uiso
CG C 0.183926 0.839602 -0.143368 0.3560 Uiso
CD C 0.17863 0.85758 -0.133413 0.4045 Uiso
NE N 0.161365 0.861896 -0.144666 0.4486 Uiso
CZ C 0.152924 0.875468 -0.132884 0.4653 Uiso
NH1 N 0.160334 0.886049 -0.110141 0.4852 Uiso
NH2 N 0.136984 0.878282 -0.143077 0.4870 Uiso
N N 0.155916 0.809427 -0.0647875 0.2263 Uiso
CA C 0.149817 0.811515 -0.0286478 0.2263 Uiso
C C 0.155241 0.797472 -0.00296605 0.2232 Uiso
O O 0.148888 0.796632 0.0269518 0.2273 Uiso
CB C 0.130618 0.814215 -0.0280653 0.2297 Uiso
CG C 0.125461 0.832052 -0.0367494 0.2690 Uiso
ND1 N 0.12117 0.837132 -0.0705063 0.2741 Uiso
CD2 C 0.124315 0.846197 -0.0162305 0.2757 Uiso
CE1 C 0.117593 0.853646 -0.0704534 0.2829 Uiso
NE2 N 0.119426 0.859388 -0.0377026 0.2912 Uiso
N N 0.166853 0.786497 -0.0150391 0.2305 Uiso
CA C 0.173881 0.773014 0.00709483 0.2335 Uiso
C C 0.163721 0.756933 0.0138727 0.2530 Uiso
O O 0.167158 0.747728 0.0395015 0.2501 Uiso
N N 0.151269 0.753394 -0.00865839 0.2480 Uiso
CA C 0.141032 0.738115 -0.00418395 0.2401 Uiso
C C 0.148875 0.721831 -0.018984 0.2441 Uiso
O O 0.144075 0.707915 -0.00783764 0.2543 Uiso
CB C 0.123233 0.7407 -0.0196989 0.2276 Uiso
CG C 0.110858 0.751153 0.00256743 0.2211 Uiso
CD1 C 0.093402 0.750504 -0.0153039 0.2394 Uiso
CD2 C 0.109533 0.743909 0.0398456 0.2191 Uiso
N N 0.160932 0.72313 -0.0435538 0.2381 Uiso
CA C 0.16847 0.707622 -0.058195 0.2515 Uiso
C C 0.17779 0.698124 -0.0288596 0.2462 Uiso
O O 0.189694 0.704745 -0.0125768 0.2498 Uiso
CB C 0.180514 0.711416 -0.0891719 0.2764 Uiso
CG C 0.18702 0.69517 -0.10797 0.3122 Uiso
OD1 O 0.179368 0.681153 -0.104369 0.3095 Uiso
OD2 O 0.200083 0.696533 -0.126953 0.3510 Uiso
N N 0.171538 0.682897 -0.0211551 0.2354 Uiso
CA C 0.178655 0.671985 0.00611522 0.2371 Uiso
C C 0.175472 0.678339 0.043817 0.2204 Uiso
O O 0.18329 0.672138 0.0689957 0.2197 Uiso
CB C 0.197639 0.668892 -0.000609688 0.2951 Uiso
CG C 0.201038 0.662118 -0.0376761 0.3612 Uiso
OD1 O 0.195487 0.648088 -0.0470751 0.4034 Uiso
ND2 N 0.209658 0.672253 -0.0593599 0.4022 Uiso
N N 0.163644 0.69032 0.0482121 0.1991 Uiso
CA C 0.159596 0.696507 0.0835046 0.1823 Uiso
C C 0.151396 0.681636 0.103547 0.1953 Uiso
O O 0.139008 0.674137 0.0911297 0.1806 Uiso
CB C 0.147437 0.711658 0.0821808 0.1697 Uiso
CG C 0.145349 0.719641 0.118109 0.1859 Uiso
CD1 C 0.157266 0.731291 0.130817 0.1901 Uiso
CD2 C 0.131929 0.714956 0.140243 0.1835 Uiso
CE1 C 0.155929 0.737963 0.16468 0.2180 Uiso
CE2 C 0.130465 0.721462 0.174105 0.1977 Uiso
CZ C 0.142471 0.732959 0.186178 0.2261 Uiso
OH O 0.141172 0.73921 0.220015 0.2661 Uiso
N N 0.158781 0.677231 0.134021 0.2018 Uiso
CA C 0.15309 0.662857 0.156181 0.2216 Uiso
C C 0.153904 0.646292 0.135398 0.1964 Uiso
O O 0.144063 0.634553 0.142308 0.2080 Uiso
CB C 0.135048 0.66539 0.170822 0.2504 Uiso
CG C 0.133393 0.67965 0.197113 0.3347 Uiso
CD C 0.143184 0.676072 0.230658 0.4148 Uiso
NE N 0.147246 0.691937 0.2489 0.4937 Uiso
CZ C 0.14829 0.693643 0.283822 0.5319 Uiso
NH1 N 0.144699 0.680554 0.305082 0.5430 Uiso
NH2 N 0.152147 0.708768 0.297537 0.5658 Uiso
N N 0.165325 0.645681 0.109478 0.1766 Uiso
CA C 0.167349 0.630581 0.0877407 0.1796 Uiso
C C 0.155076 0.628557 0.0567373 0.1734 Uiso
O O 0.155165 0.615303 0.0389719 0.1793 Uiso
N N 0.144495 0.641365 0.0497212 0.1652 Uiso
CA C 0.1324 0.640155 0.0202799 0.1484 Uiso
C C 0.139173 0.649259 -0.0119944 0.1474 Uiso
O O 0.140689 0.664766 -0.0121797 0.1455 Uiso
CB C 0.115085 0.647387 0.030632 0.1386 Uiso
CG C 0.106249 0.636629 0.0580347 0.1211 Uiso
CD1 C 0.0960884 0.622955 0.0479208 0.1223 Uiso
CD2 C 0.108018 0.640117 0.0941479 0.1229 Uiso
CE1 C 0.0877871 0.613024 0.073073 0.1211 Uiso
CE2 C 0.099768 0.630186 0.119512 0.1268 Uiso
CZ C 0.0896205 0.616639 0.108604 0.1189 Uiso
OH O 0.0808227 0.607001 0.132882 0.1349 Uiso
N N 0.142828 0.639481 -0.0396618 0.1568 Uiso
CA C 0.149639 0.646789 -0.0720684 0.1636 Uiso
C C 0.136691 0.658719 -0.0886159 0.1682 Uiso
O O 0.121336 0.657305 -0.081891 0.1557 Uiso
CB C 0.154668 0.632847 -0.0979619 0.1679 Uiso
OG O 0.140638 0.622242 -0.10654 0.2001 Uiso
N N 0.143031 0.670178 -0.110723 0.1716 Uiso
CA C 0.132591 0.682833 -0.128303 0.1644 Uiso
C C 0.116956 0.675767 -0.14689 0.1539 Uiso
O O 0.103333 0.683572 -0.145778 0.1463 Uiso
CB C 0.143617 0.692675 -0.154462 0.1804 Uiso
CG C 0.137913 0.710283 -0.166349 0.1801 Uiso
CD1 C 0.135036 0.721551 -0.134366 0.1971 Uiso
CD2 C 0.151562 0.717859 -0.190257 0.1859 Uiso
N N 0.118739 0.661138 -0.164125 0.1460 Uiso
CA C 0.104313 0.653613 -0.182579 0.1398 Uiso
C C 0.0890731 0.650443 -0.158645 0.1308 Uiso
O O 0.0745841 0.651487 -0.170215 0.1491 Uiso
N N 0.0923452 0.646649 -0.125073 0.1168 Uiso
CA C 0.0785946 0.643504 -0.0997888 0.1234 Uiso
C C 0.0681162 0.659559 -0.09407 0.1265 Uiso
O O 0.0525195 0.65905 -0.0933551 0.1307 Uiso
CB C 0.0856991 0.637647 -0.0641786 0.1384 Uiso
CG C 0.0908301 0.619237 -0.0645228 0.1406 Uiso
OD1 O 0.0800843 0.608045 -0.063093 0.1416 Uiso
ND2 N 0.107343 0.615952 -0.0674086 0.1581 Uiso
N N 0.0768885 0.673857 -0.0902839 0.1178 Uiso
CA C 0.0686255 0.690141 -0.0842474 0.1222 Uiso
C C 0.0586181 0.696087 -0.116177 0.1225 Uiso
O O 0.0446257 0.702912 -0.112471 0.1310 Uiso
CB C 0.0818922 0.70337 -0.073657 0.1203 Uiso
CG C 0.0902444 0.698837 -0.0397942 0.1170 Uiso
CD1 C 0.106058 0.692013 -0.0353462 0.1325 Uiso
CD2 C 0.0831782 0.700773 -0.00503118 0.1335 Uiso
NE1 N 0.109342 0.689632 7.8688e-05 0.1298 Uiso
CE2 C 0.0955282 0.69489 0.0193003 0.1330 Uiso
CE3 C 0.0675433 0.706948 0.00796854 0.1458 Uiso
CZ2 C 0.092829 0.695069 0.055943 0.1555 Uiso
CZ3 C 0.0648823 0.707113 0.044373 0.1663 Uiso
CH2 C 0.0774615 0.701167 0.0679367 0.1686 Uiso
N N 0.0656971 0.693464 -0.147578 0.1194 Uiso
CA C 0.0570648 0.698684 -0.179932 0.1183 Uiso
C C 0.0414172 0.687595 -0.185624 0.1137 Uiso
O O 0.027743 0.693872 -0.194361 0.1269 Uiso
CB C 0.0691475 0.697882 -0.212153 0.1402 Uiso
CG1 C 0.0592675 0.701982 -0.246466 0.1522 Uiso
CG2 C 0.0840185 0.710398 -0.206752 0.1294 Uiso
N N 0.043327 0.671171 -0.179402 0.1046 Uiso
CA C 0.0291435 0.659495 -0.183188 0.1153 Uiso
C C 0.0149856 0.664232 -0.156845 0.1165 Uiso
O O -7.6392e-05 0.664359 -0.166138 0.1212 Uiso
CB C 0.0352422 0.641314 -0.17641 0.1232 Uiso
SG S 0.0188561 0.625323 -0.182182 0.1411 Uiso
N N 0.0198619 0.668293 -0.124147 0.1141 Uiso
CA C 0.00741002 0.673055 -0.0972736 0.1324 Uiso
C C -0.0022281 0.689034 -0.108976 0.1311 Uiso
O O -0.0179139 0.68953 -0.107387 0.1432 Uiso
CB C 0.0160678 0.676047 -0.0618222 0.1340 Uiso
N N 0.00706626 0.701727 -0.122082 0.1211 Uiso
CA C -0.000865776 0.717477 -0.133996 0.1180 Uiso
C C -0.0128721 0.714128 -0.164973 0.1258 Uiso
O O -0.0267117 0.7215 -0.166958 0.1334 Uiso
CB C 0.0126556 0.730464 -0.144374 0.1098 Uiso
N N -0.00762647 0.703153 -0.189278 0.1213 Uiso
CA C -0.0182195 0.699079 -0.219804 0.1370 Uiso
C C -0.0354714 0.692229 -0.208552 0.1444 Uiso
O O -0.0488272 0.698353 -0.220202 0.1546 Uiso
CB C -0.009549 0.685711 -0.243103 0.1579 Uiso
CG C -0.0210333 0.67839 -0.271883 0.1791 Uiso
CD C -0.0261133 0.691809 -0.298703 0.2202 Uiso
CE C -0.0376867 0.684297 -0.326768 0.2466 Uiso
NZ N -0.0422066 0.697399 -0.353349 0.2831 Uiso
N N -0.0351403 0.679485 -0.185598 0.1388 Uiso
CA C -0.0508898 0.671705 -0.174531 0.1412 Uiso
C C -0.0607571 0.68086 -0.146387 0.1408 Uiso
O O -0.0759846 0.678186 -0.143262 0.1659 Uiso
CB C -0.0481015 0.652887 -0.166323 0.1483 Uiso
CG C -0.0425758 0.642918 -0.198332 0.1394 Uiso
CD1 C -0.052023 0.643873 -0.229759 0.1392 Uiso
CD2 C -0.0276921 0.633382 -0.197882 0.1524 Uiso
CE1 C -0.0465737 0.635457 -0.260498 0.1650 Uiso
CE2 C -0.0221028 0.624928 -0.228383 0.1812 Uiso
CZ C -0.0316008 0.625959 -0.259783 0.1622 Uiso
N N -0.0524176 0.691873 -0.126424 0.1194 Uiso
CA C -0.0614446 0.701371 -0.0993652 0.1277 Uiso
C C -0.0704462 0.716904 -0.114536 0.1392 Uiso
O O -0.0851771 0.720049 -0.106249 0.1393 Uiso
CB C -0.0491837 0.707406 -0.0704799 0.1229 Uiso
CG C -0.0429705 0.693375 -0.045513 0.1389 Uiso
CD C -0.0569248 0.686564 -0.0211551 0.1560 Uiso
OE1 O -0.070739 0.694394 -0.0195136 0.1619 Uiso
OE2 O -0.0541365 0.673488 -0.00333672 0.1692 Uiso
N N -0.0618266 0.726186 -0.137967 0.1302 Uiso
CA C -0.0687783 0.742126 -0.151947 0.1364 Uiso
C C -0.0681926 0.744672 -0.191793 0.1415 Uiso
O O -0.0733872 0.75813 -0.204766 0.1387 Uiso
CB C -0.0584526 0.756653 -0.136008 0.1336 Uiso
OG O -0.0416336 0.756335 -0.150093 0.1337 Uiso
N N -0.0612027 0.732259 -0.210829 0.1437 Uiso
CA C -0.0588982 0.733379 -0.249087 0.1654 Uiso
C C -0.0472485 0.748568 -0.257136 0.1496 Uiso
O O -0.049502 0.757494 -0.283294 0.1498 Uiso
CB C -0.0759209 0.734703 -0.268917 0.2099 Uiso
CG C -0.0746477 0.728248 -0.306593 0.2439 Uiso
OD1 O -0.063329 0.718177 -0.315383 0.2777 Uiso
ND2 N -0.086323 0.733799 -0.329097 0.2832 Uiso
N N -0.0351021 0.751446 -0.233281 0.1368 Uiso
CA C -0.0224083 0.764993 -0.235928 0.1399 Uiso
C C -0.0297674 0.78297 -0.233334 0.1422 Uiso
O O -0.0215171 0.795231 -0.244215 0.1474 Uiso
CB C -0.0124901 0.76363 -0.270824 0.1500 Uiso
CG C -0.00294109 0.747244 -0.275722 0.1397 Uiso
CD1 C 0.00454532 0.738994 -0.24726 0.1360 Uiso
CD2 C -0.000865776 0.740573 -0.309585 0.1515 Uiso
CE1 C 0.0142598 0.724339 -0.252476 0.1522 Uiso
CE2 C 0.00873415 0.726046 -0.315198 0.1600 Uiso
CZ C 0.0163097 0.717897 -0.286445 0.1460 Uiso
N N -0.0450713 0.784549 -0.218798 0.1334 Uiso
CA C -0.0535126 0.801088 -0.215621 0.1339 Uiso
C C -0.0516919 0.807747 -0.177972 0.1250 Uiso
O O -0.0586436 0.800311 -0.153111 0.1312 Uiso
CB C -0.0723814 0.799025 -0.22502 0.1308 Uiso
CG C -0.0820959 0.815755 -0.225259 0.1460 Uiso
OD1 O -0.0751188 0.829531 -0.21864 0.1475 Uiso
ND2 N -0.098482 0.814584 -0.233228 0.1855 Uiso
N N -0.0428941 0.822083 -0.173975 0.1274 Uiso
CA C -0.0401949 0.829608 -0.139185 0.1308 Uiso
C C -0.056581 0.835579 -0.12187 0.1203 Uiso
O O -0.0573067 0.837183 -0.0899397 0.1235 Uiso
CB C -0.0281377 0.845064 -0.140668 0.1343 Uiso
OG1 O -0.0356623 0.858369 -0.161372 0.1451 Uiso
CG2 C -0.0111405 0.840073 -0.156739 0.1443 Uiso
N N -0.069695 0.838673 -0.143209 0.1225 Uiso
CA C -0.0858264 0.845217 -0.129468 0.1253 Uiso
C C -0.0989658 0.831861 -0.119328 0.1374 Uiso
O O -0.113124 0.836075 -0.108473 0.1519 Uiso
CB C -0.0935547 0.857745 -0.156156 0.1386 Uiso
CG C -0.0824015 0.873291 -0.163411 0.1349 Uiso
CD C -0.0922051 0.887475 -0.181229 0.1553 Uiso
OE1 O -0.102149 0.896463 -0.164231 0.1893 Uiso
NE2 N -0.0900025 0.889142 -0.215727 0.1553 Uiso
N N -0.0942168 0.815755 -0.121976 0.1337 Uiso
CA C -0.106007 0.802068 -0.11345 0.1450 Uiso
C C -0.11129 0.801865 -0.0745307 0.1311 Uiso
O O -0.100799 0.804386 -0.0507552 0.1225 Uiso
CB C -0.0981892 0.784906 -0.123617 0.1411 Uiso
N N -0.127778 0.799624 -0.0684942 0.1230 Uiso
CA C -0.13459 0.79816 -0.0329898 0.1349 Uiso
C C -0.147551 0.7839 -0.0338635 0.1327 Uiso
O O -0.156082 0.781048 -0.0606043 0.1519 Uiso
CB C -0.143719 0.814457 -0.0202019 0.1494 Uiso
OG1 O -0.157011 0.818811 -0.0446658 0.1681 Uiso
CG2 C -0.13142 0.829238 -0.0162835 0.1473 Uiso
N N -0.148964 0.774745 -0.00466052 0.1375 Uiso
CA C -0.161353 0.761122 -0.00203939 0.1522 Uiso
C C -0.167107 0.759556 0.036139 0.1475 Uiso
O O -0.156629 0.758907 0.0600204 0.1440 Uiso
CB C -0.153675 0.744481 -0.0153303 0.1909 Uiso
CG C -0.150823 0.744558 -0.055468 0.2229 Uiso
OD1 O -0.136589 0.746824 -0.0682029 0.2591 Uiso
ND2 N -0.164536 0.742559 -0.0753514 0.2258 Uiso
N N -0.183863 0.759543 0.041699 0.1598 Uiso
CA C -0.191235 0.758232 0.0772298 0.1776 Uiso
C C -0.192457 0.739656 0.0881908 0.1858 Uiso
O O -0.196773 0.728732 0.0666394 0.1988 Uiso
CB C -0.209225 0.76582 0.0778122 0.2094 Uiso
CG C -0.216164 0.769436 0.11472 0.2314 Uiso
CD C -0.210142 0.786688 0.12629 0.2910 Uiso
NE N -0.213185 0.790215 0.163674 0.3370 Uiso
CZ C -0.225675 0.800095 0.175959 0.3282 Uiso
NH1 N -0.236599 0.807301 0.153772 0.3320 Uiso
NH2 N -0.226209 0.804042 0.210113 0.3146 Uiso
N N -0.188866 0.736244 0.121762 0.1940 Uiso
CA C -0.189758 0.719081 0.136245 0.2195 Uiso
C C -0.206233 0.71777 0.157081 0.2261 Uiso
O O -0.213325 0.730693 0.167857 0.2366 Uiso
CB C -0.174428 0.715771 0.160153 0.2324 Uiso
CG C -0.157495 0.718012 0.140799 0.2392 Uiso
OD1 O -0.146011 0.726848 0.153348 0.2750 Uiso
ND2 N -0.156005 0.710156 0.110034 0.2646 Uiso
N N -0.212115 0.702237 0.163886 0.2624 Uiso
CA C -0.228157 0.699461 0.183213 0.2837 Uiso
C C -0.227903 0.706209 0.220862 0.2736 Uiso
O O -0.24108 0.711595 0.234471 0.2956 Uiso
CB C -0.233276 0.680427 0.184113 0.3035 Uiso
OG1 O -0.219945 0.670598 0.199972 0.3435 Uiso
CG2 C -0.236306 0.674074 0.146941 0.3161 Uiso
N N -0.213019 0.706005 0.237595 0.2570 Uiso
CA C -0.211555 0.71241 0.273549 0.2524 Uiso
C C -0.211911 0.731902 0.274741 0.2462 Uiso
O O -0.210358 0.739401 0.303282 0.2660 Uiso
CB C -0.1955 0.70556 0.291632 0.2517 Uiso
CG C -0.179343 0.711467 0.274185 0.2769 Uiso
OD1 O -0.180069 0.719909 0.246464 0.3011 Uiso
OD2 O -0.165554 0.70761 0.287926 0.3062 Uiso
N N -0.213337 0.740114 0.244029 0.2215 Uiso
CA C -0.21405 0.758538 0.243261 0.1920 Uiso
C C -0.197244 0.767348 0.235715 0.1890 Uiso
O O -0.196837 0.782818 0.229758 0.1967 Uiso
N N -0.183277 0.757837 0.236668 0.1648 Uiso
CA C -0.166764 0.765247 0.229017 0.1505 Uiso
C C -0.165618 0.767017 0.188694 0.1407 Uiso
O O -0.176593 0.760664 0.169472 0.1508 Uiso
CB C -0.152695 0.753687 0.242546 0.1541 Uiso
OG O -0.153102 0.737912 0.224489 0.1748 Uiso
N N -0.152593 0.775777 0.175879 0.1293 Uiso
CA C -0.150518 0.778209 0.137807 0.1318 Uiso
C C -0.131814 0.775433 0.129176 0.1286 Uiso
O O -0.12089 0.778972 0.151495 0.1307 Uiso
CB C -0.155751 0.796492 0.126846 0.1405 Uiso
OG1 O -0.173295 0.799382 0.136139 0.1312 Uiso
CG2 C -0.153433 0.79928 0.0869729 0.1417 Uiso
N N -0.12844 0.768163 0.0980399 0.1170 Uiso
CA C -0.111176 0.765005 0.0852255 0.1273 Uiso
C C -0.107089 0.779494 0.0601263 0.1216 Uiso
O O -0.117784 0.784269 0.0384159 0.1179 Uiso
CB C -0.110221 0.748123 0.0658451 0.1384 Uiso
CG C -0.112996 0.733252 0.0899912 0.1738 Uiso
OD1 O -0.110463 0.734932 0.122212 0.1830 Uiso
OD2 O -0.117605 0.71954 0.0766738 0.2647 Uiso
N N -0.0914412 0.785899 0.0623238 0.1237 Uiso
CA C -0.0860811 0.800604 0.0417784 0.1160 Uiso
C C -0.0698732 0.798771 0.0214713 0.1253 Uiso
O O -0.0571539 0.792303 0.0350005 0.1321 Uiso
CB C -0.0829235 0.815615 0.0666129 0.1165 Uiso
CG C -0.0984311 0.821892 0.0855432 0.1212 Uiso
CD1 C -0.103779 0.814355 0.117023 0.1246 Uiso
CD2 C -0.108056 0.835248 0.0716963 0.1211 Uiso
CE1 C -0.118344 0.819893 0.134206 0.1226 Uiso
CE2 C -0.122584 0.840888 0.0886674 0.1369 Uiso
CZ C -0.127562 0.833096 0.119856 0.1310 Uiso
OH O -0.141898 0.838546 0.136801 0.1424 Uiso
N N -0.0702042 0.805442 -0.0105911 0.1273 Uiso
CA C -0.0549513 0.806041 -0.0316396 0.1343 Uiso
C C -0.0492219 0.790699 -0.0518672 0.1197 Uiso
O O -0.0573577 0.777305 -0.0527145 0.1213 Uiso
N N -0.0340836 0.79285 -0.0663496 0.1311 Uiso
CA C -0.0261006 0.780348 -0.0884571 0.1436 Uiso
C C -0.0235669 0.76321 -0.0697915 0.1348 Uiso
O O -0.0245346 0.749893 -0.0867096 0.1417 Uiso
CB C -0.00957446 0.788025 -0.10474 0.1763 Uiso
CG1 C -0.00482543 0.778425 -0.138444 0.2052 Uiso
CG2 C 0.00465991 0.788878 -0.0770989 0.1724 Uiso
CD1 C 0.00645512 0.788318 -0.162855 0.2457 Uiso
N N -0.0211733 0.763516 -0.0349491 0.1272 Uiso
CA C -0.0189198 0.747881 -0.0151185 0.1381 Uiso
C C -0.0339944 0.7441 0.0084451 0.1377 Uiso
O O -0.0330395 0.733392 0.0320882 0.1358 Uiso
CB C -0.00227903 0.748199 0.00585046 0.1672 Uiso
CG C 0.0135468 0.745984 -0.0173425 0.1816 Uiso
CD1 C 0.0295255 0.749065 0.0043678 0.1910 Uiso
CD2 C 0.0133941 0.728223 -0.0337576 0.1958 Uiso
N N -0.0478469 0.753458 0.0029381 0.1260 Uiso
CA C -0.0634563 0.750542 0.022848 0.1254 Uiso
C C -0.0608335 0.748658 0.0628003 0.1241 Uiso
O O -0.0660154 0.736015 0.0786065 0.1408 Uiso
CB C -0.0725342 0.734882 0.00762435 0.1211 Uiso
CG C -0.0800715 0.738141 -0.0290714 0.1299 Uiso
CD C -0.0947133 0.750593 -0.0275887 0.1340 Uiso
OE1 O -0.109113 0.745653 -0.0203873 0.1299 Uiso
NE2 N -0.0910083 0.766979 -0.0332811 0.1367 Uiso
N N -0.0531306 0.761555 0.0787918 0.1288 Uiso
CA C -0.0496803 0.761644 0.116494 0.1397 Uiso
C C -0.0660791 0.765515 0.136801 0.1512 Uiso
O O -0.075679 0.777368 0.128143 0.1360 Uiso
CB C -0.0351276 0.773905 0.124542 0.1549 Uiso
CG1 C -0.0186015 0.766151 0.110272 0.1386 Uiso
CG2 C -0.0340836 0.777737 0.164018 0.1688 Uiso
CD1 C -0.00357769 0.777941 0.111781 0.1520 Uiso
N N -0.0693003 0.754947 0.163303 0.1559 Uiso
CA C -0.0849352 0.755609 0.184113 0.1686 Uiso
C C -0.0857882 0.768838 0.213978 0.1624 Uiso
O O -0.0739602 0.770468 0.235477 0.1755 Uiso
CB C -0.088602 0.737543 0.197484 0.1681 Uiso
CG C -0.105612 0.736129 0.215011 0.1579 Uiso
CG C -0.106771 0.73534 0.210616 0.1857 Uiso
OD1 O -0.106681 0.736791 0.247153 0.1703 Uiso
OD1 O -0.11553 0.747614 0.21885 0.2087 Uiso
ND2 N -0.119044 0.734398 0.194201 0.1479 Uiso
ND2 N -0.112182 0.719501 0.214031 0.2042 Uiso
N N -0.100265 0.77775 0.215885 0.1525 Uiso
CA C -0.10332 0.790966 0.242361 0.1606 Uiso
C C -0.106592 0.784167 0.279904 0.1678 Uiso
O O -0.106287 0.79392 0.3054 0.1844 Uiso
CB C -0.11828 0.802145 0.230764 0.1408 Uiso
OG O -0.133686 0.792698 0.230632 0.1389 Uiso
N N -0.110043 0.767654 0.283081 0.1969 Uiso
CA C -0.113175 0.759671 0.317579 0.2401 Uiso
C C -0.0972597 0.760524 0.340587 0.2418 Uiso
O O -0.0984948 0.762676 0.372887 0.2457 Uiso
CB C -0.118662 0.741018 0.312813 0.2752 Uiso
CG C -0.120139 0.730413 0.346358 0.3651 Uiso
CD C -0.135494 0.735276 0.368757 0.4343 Uiso
NE N -0.151638 0.733494 0.349615 0.4868 Uiso
CZ C -0.165631 0.742406 0.356975 0.5105 Uiso
NH1 N -0.165567 0.753776 0.383213 0.5375 Uiso
NH2 N -0.179674 0.740025 0.338071 0.5081 Uiso
N N -0.0823378 0.760129 0.32388 0.2229 Uiso
CA C -0.0665374 0.760409 0.343923 0.2266 Uiso
C C -0.0532325 0.773167 0.333438 0.2006 Uiso
O O -0.0440527 0.779724 0.35589 0.2104 Uiso
CB C -0.0574086 0.743208 0.340692 0.2708 Uiso
CG C -0.0682563 0.728032 0.345379 0.3432 Uiso
CD1 C -0.0751825 0.718164 0.319167 0.3688 Uiso
CD2 C -0.0736419 0.720876 0.378129 0.3807 Uiso
NE1 N -0.0846296 0.70528 0.333941 0.3982 Uiso
CE2 C -0.0839293 0.706642 0.370054 0.4047 Uiso
CE3 C -0.0708408 0.725142 0.413687 0.4112 Uiso
CZ2 C -0.0914794 0.696533 0.396398 0.4475 Uiso
CZ3 C -0.0783273 0.715147 0.439924 0.4467 Uiso
CH2 C -0.0885383 0.700989 0.431108 0.4567 Uiso
N N -0.0527487 0.777801 0.299205 0.1881 Uiso
CA C -0.0372029 0.786561 0.287396 0.1692 Uiso
C C -0.0393546 0.805481 0.2794 0.1639 Uiso
O O -0.026508 0.814775 0.279533 0.1678 Uiso
CB C -0.0306077 0.777878 0.254566 0.1720 Uiso
CG C -0.0285579 0.758894 0.261423 0.1662 Uiso
CD1 C -0.0387435 0.746404 0.249615 0.1674 Uiso
CD2 C -0.0153548 0.751344 0.282048 0.1654 Uiso
NE1 N -0.0322756 0.730769 0.262774 0.1772 Uiso
CE2 C -0.0184232 0.733863 0.282048 0.1763 Uiso
CE3 C -0.00122227 0.757774 0.300714 0.1863 Uiso
CZ2 C -0.0079957 0.722175 0.300237 0.1764 Uiso
CZ3 C 0.00914158 0.745971 0.318744 0.1783 Uiso
CH2 C 0.00584399 0.728885 0.318479 0.1836 Uiso
N N -0.0544166 0.811987 0.271987 0.1633 Uiso
CA C -0.0563136 0.829926 0.264124 0.1549 Uiso
C C -0.0731708 0.836139 0.278818 0.1595 Uiso
O O -0.084515 0.825992 0.287502 0.1591 Uiso
CB C -0.0551805 0.833007 0.224092 0.1459 Uiso
SG S -0.0716048 0.822223 0.19804 0.1410 Uiso
N N -0.0745331 0.852844 0.282498 0.1568 Uiso
CA C -0.0899134 0.860559 0.296213 0.1687 Uiso
C C -0.100965 0.86816 0.26693 0.1527 Uiso
O O -0.094968 0.879046 0.246835 0.1487 Uiso
CB C -0.0854954 0.874603 0.322768 0.1833 Uiso
CG C -0.101309 0.882267 0.339819 0.2379 Uiso
OD1 O -0.113226 0.873075 0.349456 0.2651 Uiso
ND2 N -0.101729 0.899086 0.342784 0.2969 Uiso
N N -0.116803 0.86224 0.264044 0.1345 Uiso
CA C -0.12844 0.869408 0.238019 0.1334 Uiso
C C -0.143579 0.878027 0.255546 0.1484 Uiso
O O -0.155458 0.88354 0.23786 0.1629 Uiso
CB C -0.13431 0.85623 0.210907 0.1384 Uiso
CG C -0.144445 0.84169 0.226846 0.1254 Uiso
OD1 O -0.148366 0.841525 0.258961 0.1456 Uiso
OD2 O -0.148404 0.829913 0.206353 0.1411 Uiso
N N -0.143031 0.879059 0.290573 0.1682 Uiso
CA C -0.156591 0.887131 0.310351 0.1873 Uiso
C C -0.173588 0.877913 0.311066 0.2126 Uiso
O O -0.185951 0.884877 0.325098 0.2449 Uiso
N N -0.174581 0.862431 0.296901 0.1858 Uiso
CA C -0.190751 0.853289 0.296954 0.2021 Uiso
C C -0.18935 0.834204 0.303705 0.2080 Uiso
O O -0.199994 0.824235 0.291182 0.2351 Uiso
CB C -0.200287 0.856307 0.26235 0.2028 Uiso
CG C -0.191706 0.848617 0.230526 0.2124 Uiso
CD C -0.204158 0.847776 0.200528 0.2328 Uiso
NE N -0.198556 0.836216 0.172835 0.2449 Uiso
CZ C -0.204514 0.836483 0.139845 0.2663 Uiso
NH1 N -0.216419 0.847827 0.130897 0.2798 Uiso
NH2 N -0.198606 0.825482 0.115885 0.2381 Uiso
N N -0.176389 0.829009 0.323324 0.2020 Uiso
CA C -0.174148 0.811108 0.332008 0.1992 Uiso
C C -0.172366 0.810943 0.372278 0.2311 Uiso
O O -0.158284 0.811566 0.386469 0.2404 Uiso
CB C -0.157928 0.803673 0.314508 0.1899 Uiso
OG1 O -0.157788 0.807912 0.277521 0.1665 Uiso
CG2 C -0.157418 0.784396 0.318585 0.1690 Uiso
N N -0.186753 0.811579 0.391182 0.2617 Uiso
CA C -0.187313 0.811617 0.429917 0.2875 Uiso
C C -0.175867 0.798338 0.446676 0.3092 Uiso
O O -0.17546 0.783569 0.435265 0.3247 Uiso
CB C -0.205889 0.80776 0.437383 0.3026 Uiso
CG C -0.214649 0.817016 0.407783 0.3033 Uiso
CD C -0.204056 0.812012 0.376223 0.2717 Uiso
N N -0.166267 0.803902 0.473178 0.3307 Uiso
CA C -0.154783 0.792481 0.491712 0.3540 Uiso
C C -0.140625 0.785147 0.468916 0.3620 Uiso
O O -0.135659 0.770468 0.473761 0.3998 Uiso
N N -0.134666 0.794951 0.44326 0.3451 Uiso
CA C -0.120979 0.789171 0.420465 0.3369 Uiso
C C -0.104479 0.797599 0.432538 0.3341 Uiso
O O -0.104593 0.810357 0.451733 0.3298 Uiso
CB C -0.124608 0.793627 0.381704 0.3383 Uiso
OG O -0.122889 0.811363 0.375217 0.3403 Uiso
N N -0.0903208 0.789973 0.422212 0.3168 Uiso
CA C -0.073731 0.79667 0.431426 0.3142 Uiso
C C -0.0673777 0.806143 0.399072 0.2894 Uiso
O O -0.0750297 0.805251 0.370319 0.2923 Uiso
CB C -0.061572 0.782168 0.441089 0.3434 Uiso
CG C -0.0668175 0.772377 0.474237 0.4111 Uiso
CD C -0.0561354 0.777521 0.506379 0.4896 Uiso
NE N -0.0397238 0.76857 0.507332 0.5484 Uiso
CZ C -0.0267754 0.772568 0.528646 0.5798 Uiso
NH1 N -0.0279849 0.785542 0.551124 0.5775 Uiso
NH2 N -0.0125028 0.763516 0.527534 0.5959 Uiso
N N -0.0536908 0.815615 0.404049 0.2522 Uiso
CA C -0.0458479 0.825368 0.375747 0.2289 Uiso
C C -0.0268773 0.822121 0.380459 0.2151 Uiso
O O -0.0169336 0.833809 0.386972 0.2059 Uiso
CB C -0.050024 0.844288 0.379797 0.2168 Uiso
CG C -0.0423084 0.85511 0.350727 0.2053 Uiso
OD1 O -0.034491 0.848617 0.325998 0.2135 Uiso
ND2 N -0.044231 0.871776 0.353983 0.2076 Uiso
N N -0.0220264 0.80599 0.37715 0.2139 Uiso
CA C -0.00436708 0.800795 0.382074 0.2149 Uiso
C C 0.0085559 0.809287 0.357928 0.2073 Uiso
O O 0.023376 0.810968 0.367804 0.2295 Uiso
CB C -0.0028265 0.781404 0.380751 0.2361 Uiso
CG C -0.0123118 0.772772 0.411224 0.2600 Uiso
CD1 C -0.0119681 0.75347 0.407306 0.2660 Uiso
CD2 C -0.00418883 0.778285 0.446146 0.2847 Uiso
N N 0.00323393 0.814902 0.326713 0.1904 Uiso
CA C 0.0151256 0.823573 0.303308 0.1871 Uiso
C C 0.0149983 0.842734 0.309292 0.1983 Uiso
O O 0.0248401 0.852016 0.29293 0.2025 Uiso
CB C 0.0115734 0.819384 0.264494 0.1777 Uiso
SG S 0.0175447 0.797599 0.254222 0.1852 Uiso
N N 0.00370501 0.848642 0.332379 0.2138 Uiso
CA C 0.00247001 0.866709 0.340798 0.2447 Uiso
C C 6.366e-05 0.878053 0.309027 0.2314 Uiso
O O 0.0095108 0.890339 0.303547 0.2192 Uiso
CB C 0.018054 0.872578 0.361503 0.3143 Uiso
CG C 0.0144381 0.873839 0.400396 0.3945 Uiso
OD1 O 0.0040997 0.88447 0.411728 0.4514 Uiso
ND2 N 0.0222301 0.862647 0.421179 0.4258 Uiso
N N -0.0128721 0.874081 0.288164 0.2106 Uiso
CA C -0.0165516 0.884024 0.256658 0.2206 Uiso
C C -0.0352931 0.883235 0.247365 0.2016 Uiso
O O -0.0443328 0.871343 0.25777 0.1809 Uiso
CB C -0.00744822 0.87706 0.222715 0.2246 Uiso
CG1 C -0.00991823 0.857784 0.219829 0.2457 Uiso
CG2 C 0.0108604 0.88298 0.220571 0.2532 Uiso
CD1 C -0.00614956 0.850603 0.183425 0.2764 Uiso
N N -0.0417355 0.896769 0.23042 0.1902 Uiso
CA C -0.0597003 0.896196 0.2202 0.1778 Uiso
C C -0.0597003 0.883757 0.1888 0.1539 Uiso
O O -0.0473248 0.882917 0.168519 0.1439 Uiso
CB C -0.0633672 0.914492 0.208498 0.1872 Uiso
CG C -0.0461535 0.921405 0.197749 0.2220 Uiso
CD C -0.0343891 0.913843 0.225098 0.2067 Uiso
N N -0.0730435 0.873609 0.18557 0.1383 Uiso
CA C -0.0738583 0.86131 0.156764 0.1279 Uiso
C C -0.072687 0.869853 0.120571 0.1375 Uiso
O O -0.0661809 0.862303 0.0950746 0.1465 Uiso
CB C -0.0900534 0.850705 0.15965 0.1203 Uiso
SG S -0.0915303 0.838622 0.200661 0.1294 Uiso
N N -0.0785182 0.885705 0.118321 0.1349 Uiso
CA C -0.077818 0.894974 0.0849343 0.1598 Uiso
C C -0.0595476 0.896489 0.0710608 0.1597 Uiso
O O -0.056772 0.89682 0.038919 0.1726 Uiso
CB C -0.0857118 0.912608 0.089038 0.1573 Uiso
OG O -0.0772196 0.921876 0.115779 0.1924 Uiso
N N -0.0470829 0.896845 0.0949687 0.1621 Uiso
CA C -0.0290926 0.897966 0.0843518 0.1835 Uiso
C C -0.0239871 0.882573 0.0616883 0.1852 Uiso
O O -0.0123755 0.883617 0.039422 0.2024 Uiso
CB C -0.0177102 0.899137 0.116917 0.1824 Uiso
N N -0.0328995 0.868402 0.0669571 0.1614 Uiso
CA C -0.0295892 0.852729 0.047709 0.1662 Uiso
C C -0.0363499 0.8525 0.00979538 0.1643 Uiso
O O -0.0335488 0.840175 -0.00937324 0.1825 Uiso
CB C -0.037152 0.837743 0.0682279 0.1605 Uiso
CG C -0.0298565 0.83549 0.105374 0.1887 Uiso
CD1 C -0.0399403 0.821943 0.12531 0.1923 Uiso
CD2 C -0.0110004 0.830957 0.102964 0.1812 Uiso
N N -0.0448421 0.866085 -0.00153635 0.1625 Uiso
CA C -0.0519848 0.866632 -0.0370407 0.1587 Uiso
C C -0.0419137 0.877887 -0.0617957 0.1755 Uiso
O O -0.0458734 0.879021 -0.0935404 0.1887 Uiso
CB C -0.0704589 0.873036 -0.0358757 0.1673 Uiso
CG C -0.082376 0.86308 -0.0112795 0.1866 Uiso
CD1 C -0.0998698 0.871076 -0.0122591 0.2109 Uiso
CD2 C -0.0835219 0.844619 -0.0229025 0.1730 Uiso
N N -0.0289016 0.88615 -0.047181 0.1869 Uiso
CA C -0.0177102 0.897622 -0.0669321 0.1891 Uiso
C C -0.00853044 0.889257 -0.0978296 0.1887 Uiso
O O -0.00527105 0.874055 -0.0973265 0.1891 Uiso
CB C -0.00439254 0.905185 -0.0418328 0.1892 Uiso
OG O 0.00772832 0.914836 -0.060975 0.2401 Uiso
N N -0.00426522 0.899328 -0.124623 0.1968 Uiso
CA C 0.00515646 0.892886 -0.154885 0.2025 Uiso
C C 0.0231977 0.888442 -0.14313 0.2123 Uiso
O O 0.0320337 0.878588 -0.160313 0.2394 Uiso
CB C 0.00533471 0.906242 -0.184433 0.2021 Uiso
CB C 0.00527105 0.905923 -0.184936 0.2092 Uiso
OG O 0.0100965 0.922386 -0.171698 0.1836 Uiso
OG O -0.0117007 0.907859 -0.197856 0.2137 Uiso
N N 0.0284815 0.895712 -0.113397 0.2182 Uiso
CA C 0.0452241 0.892567 -0.0978031 0.2238 Uiso
C C 0.0421429 0.877505 -0.0730215 0.2110 Uiso
O O 0.032161 0.878791 -0.0479223 0.2125 Uiso
CB C 0.0508643 0.908113 -0.0764105 0.2494 Uiso
CG C 0.0691475 0.906649 -0.0629077 0.3024 Uiso
OD1 O 0.0748005 0.892427 -0.0546207 0.2984 Uiso
OD2 O 0.0780599 0.919763 -0.0612397 0.3499 Uiso
N N 0.0506988 0.863284 -0.0797729 0.1959 Uiso
CA C 0.0479996 0.847993 -0.0583274 0.1748 Uiso
C C 0.0574595 0.847216 -0.0234585 0.1692 Uiso
O O 0.0557534 0.834828 -0.00394566 0.1596 Uiso
CB C 0.0517938 0.831543 -0.079164 0.1782 Uiso
CG1 C 0.0708027 0.83027 -0.0882188 0.1748 Uiso
CG2 C 0.0405769 0.830792 -0.112471 0.1873 Uiso
CD1 C 0.0756917 0.813705 -0.105534 0.1983 Uiso
N N 0.0674032 0.860241 -0.0152244 0.1671 Uiso
CA C 0.0771814 0.860343 0.0174734 0.1714 Uiso
C C 0.0673141 0.854932 0.0507008 0.1665 Uiso
O O 0.0731326 0.843867 0.0704784 0.1693 Uiso
CB C 0.0854954 0.877849 0.0232452 0.1869 Uiso
OG1 O 0.0959102 0.881822 -0.00654031 0.2149 Uiso
CG2 C 0.0966104 0.877544 0.0556518 0.2106 Uiso
N N 0.0524558 0.862456 0.0568962 0.1484 Uiso
CA C 0.0426267 0.858255 0.088588 0.1595 Uiso
C C 0.0373175 0.839717 0.0878731 0.1536 Uiso
O O 0.0383361 0.831021 0.114958 0.1749 Uiso
CB C 0.0269918 0.869815 0.091871 0.1595 Uiso
N N 0.0313589 0.833771 0.0572933 0.1382 Uiso
CA C 0.0260497 0.815997 0.0536926 0.1431 Uiso
C C 0.040857 0.803774 0.0611588 0.1455 Uiso
O O 0.0389599 0.791068 0.0800892 0.1496 Uiso
CB C 0.0185887 0.812725 0.016785 0.1397 Uiso
OG O 0.00141325 0.818213 0.01517 0.1551 Uiso
N N 0.0556643 0.80781 0.0466235 0.1481 Uiso
CA C 0.0705735 0.797179 0.0519981 0.1591 Uiso
C C 0.0762647 0.797128 0.0906796 0.1667 Uiso
O O 0.0795241 0.783556 0.105559 0.1648 Uiso
CB C 0.0852917 0.802718 0.0275873 0.1790 Uiso
CG1 C 0.101869 0.793258 0.0376217 0.1904 Uiso
CG2 C 0.0804662 0.799076 -0.0106176 0.1855 Uiso
N N 0.0773087 0.812088 0.107174 0.1559 Uiso
CA C 0.0826689 0.81312 0.144188 0.1823 Uiso
C C 0.0708663 0.803265 0.168413 0.1771 Uiso
O O 0.0766339 0.794786 0.193036 0.1830 Uiso
CB C 0.0838402 0.831581 0.156923 0.2205 Uiso
CG C 0.0981637 0.841334 0.139104 0.2843 Uiso
OD1 O 0.109623 0.833746 0.123245 0.2902 Uiso
ND2 N 0.0975271 0.858318 0.141566 0.3141 Uiso
N N 0.0543274 0.804436 0.161582 0.1577 Uiso
CA C 0.0420283 0.795333 0.183028 0.1473 Uiso
C C 0.0431233 0.77621 0.175615 0.1421 Uiso
O O 0.0423594 0.765871 0.200025 0.1432 Uiso
CB C 0.0241781 0.802094 0.17572 0.1546 Uiso
SG S 0.00790657 0.793729 0.205082 0.1771 Uiso
N N 0.0453641 0.771537 0.142017 0.1401 Uiso
CA C 0.0468028 0.753636 0.131744 0.1382 Uiso
C C 0.0620303 0.74536 0.150648 0.1473 Uiso
O O 0.0613428 0.730553 0.161053 0.1532 Uiso
CB C 0.0486744 0.752057 0.091871 0.1301 Uiso
N N 0.0757936 0.754934 0.155202 0.1525 Uiso
CA C 0.09069 0.748237 0.173523 0.1627 Uiso
C C 0.086132 0.743527 0.21149 0.1691 Uiso
O O 0.0921669 0.73082 0.225019 0.1950 Uiso
CB C 0.105154 0.761339 0.173258 0.1750 Uiso
CG C 0.113468 0.763287 0.137489 0.1779 Uiso
CD C 0.127307 0.776706 0.138125 0.2066 Uiso
CE C 0.134985 0.778514 0.101217 0.2325 Uiso
NZ N 0.146507 0.793436 0.0979605 0.2398 Uiso
N N 0.0755644 0.753789 0.228831 0.1747 Uiso
CA C 0.0705989 0.749905 0.265315 0.2006 Uiso
C C 0.0592293 0.734181 0.26603 0.1863 Uiso
O O 0.0609354 0.723168 0.288773 0.1844 Uiso
CB C 0.0612155 0.764904 0.282578 0.2380 Uiso
CG C 0.072114 0.780793 0.28774 0.3271 Uiso
CD C 0.0634945 0.793627 0.312257 0.3739 Uiso
CE C 0.0742658 0.80986 0.316493 0.4154 Uiso
NZ N 0.0761501 0.819919 0.283028 0.4397 Uiso
N N 0.0475286 0.733239 0.240772 0.1603 Uiso
CA C 0.0357387 0.718877 0.238707 0.1578 Uiso
C C 0.0452241 0.702071 0.233571 0.1465 Uiso
O O 0.0427795 0.69023 0.253639 0.1474 Uiso
CB C 0.0224211 0.721488 0.208154 0.1617 Uiso
CG1 C 0.0113569 0.737148 0.21562 0.1487 Uiso
CG2 C 0.0113187 0.7057 0.203229 0.1367 Uiso
CD1 C -7.6392e-05 0.741859 0.185199 0.1435 Uiso
N N 0.0565937 0.701371 0.20773 0.1558 Uiso
CA C 0.0658754 0.685787 0.199972 0.1662 Uiso
C C 0.0781236 0.680338 0.229626 0.2080 Uiso
O O 0.0838275 0.66567 0.230632 0.2050 Uiso
CB C 0.075157 0.687137 0.164018 0.1601 Uiso
CG1 C 0.0906264 0.698748 0.166825 0.1570 Uiso
CG2 C 0.0799188 0.669719 0.150542 0.1759 Uiso
N N 0.0819941 0.692077 0.253692 0.2211 Uiso
CA C 0.0931855 0.688435 0.283637 0.2660 Uiso
C C 0.0826689 0.68291 0.315726 0.2962 Uiso
O O 0.0896333 0.677358 0.342493 0.3195 Uiso
CB C 0.103218 0.704376 0.2933 0.2363 Uiso
OG O 0.114117 0.709227 0.265368 0.2662 Uiso
N N 0.0658754 0.684285 0.312072 0.3359 Uiso
CA C 0.0533853 0.68035 0.339554 0.3658 Uiso
C C 0.0527869 0.661965 0.352607 0.3724 Uiso
O O 0.0441928 0.658184 0.378791 0.3886 Uiso
CB C 0.0358151 0.685532 0.326078 0.3979 Uiso
CG C 0.0228285 0.686831 0.355069 0.4637 Uiso
OD1 O 0.0262407 0.695743 0.381677 0.4884 Uiso
OD2 O 0.0089506 0.679243 0.35078 0.5027 Uiso
N N 0.0614064 0.650392 0.334259 0.3673 Uiso
CA C 0.0612282 0.632707 0.345935 0.3511 Uiso
C C 0.0542638 0.619708 0.319882 0.3402 Uiso
O O 0.0603115 0.605117 0.319565 0.3432 Uiso
N N 0.0416973 0.624572 0.298304 0.3047 Uiso
CA C 0.0345165 0.612731 0.272358 0.2714 Uiso
C C 0.0416336 0.615341 0.235265 0.2159 Uiso
O O 0.0362607 0.606976 0.21006 0.1964 Uiso
CB C 0.0152147 0.614017 0.271855 0.3312 Uiso
CG C 0.0076392 0.611037 0.307915 0.4025 Uiso
OD1 O 0.00931982 0.597172 0.322848 0.4319 Uiso
ND2 N -0.000165516 0.62424 0.323033 0.4288 Uiso
N N 0.0538818 0.626812 0.232114 0.1817 Uiso
CA C 0.0615974 0.63011 0.19804 0.1695 Uiso
C C 0.048649 0.636438 0.171246 0.1593 Uiso
O O 0.0365536 0.645299 0.18038 0.1698 Uiso
N N 0.0506861 0.631167 0.138125 0.1453 Uiso
CA C 0.0391127 0.636909 0.110457 0.1324 Uiso
C C 0.0218736 0.628315 0.110722 0.1363 Uiso
O O 0.0107076 0.63272 0.0898059 0.1215 Uiso
CB C 0.0474776 0.635737 0.0741585 0.1203 Uiso
CG C 0.0605152 0.649832 0.0684397 0.1264 Uiso
SD S 0.0667411 0.652162 0.0230863 0.1517 Uiso
CE C 0.0485089 0.663646 0.00600931 0.1587 Uiso
N N 0.0196582 0.616028 0.13455 0.1417 Uiso
CA C 0.00334852 0.607205 0.137674 0.1477 Uiso
C C -0.0103511 0.619759 0.14935 0.1435 Uiso
O O -0.0255022 0.616016 0.14612 0.1529 Uiso
CB C 0.0044944 0.592105 0.163091 0.1458 Uiso
CG C 0.0156731 0.577934 0.148688 0.1560 Uiso
OD1 O 0.0117644 0.570066 0.121312 0.1634 Uiso
ND2 N 0.029882 0.574866 0.166427 0.1693 Uiso
N N -0.00486362 0.634655 0.162191 0.1455 Uiso
CA C -0.0165261 0.648164 0.173073 0.1484 Uiso
C C -0.0271064 0.654135 0.141169 0.1567 Uiso
O O -0.0410098 0.661151 0.145432 0.1896 Uiso
CB C -0.00663337 0.662946 0.188561 0.1583 Uiso
N N -0.0203457 0.65164 0.109292 0.1340 Uiso
CA C -0.0292072 0.656338 0.0767267 0.1364 Uiso
C C -0.0374066 0.640423 0.0617148 0.1450 Uiso
O O -0.0287107 0.629155 0.0478149 0.1336 Uiso
CB C -0.0170354 0.664232 0.0498006 0.1350 Uiso
CG C -0.0122864 0.68198 0.0596762 0.1339 Uiso
CD1 C -0.0215807 0.696393 0.0531895 0.1358 Uiso
CD2 C 0.00272465 0.687378 0.078024 0.1217 Uiso
NE1 N -0.0132031 0.710334 0.0661628 0.1346 Uiso
CE2 C 0.00175702 0.705229 0.0814659 0.1346 Uiso
CE3 C 0.0169208 0.678873 0.0919239 0.1283 Uiso
CZ2 C 0.0144381 0.714841 0.0984106 0.1192 Uiso
CZ3 C 0.0295382 0.688448 0.108816 0.1279 Uiso
CH2 C 0.0281632 0.706247 0.111754 0.1158 Uiso
N N -0.0542638 0.639761 0.0640712 0.1534 Uiso
CA C -0.0638637 0.625094 0.0517598 0.1584 Uiso
C C -0.0606298 0.62065 0.0127872 0.1517 Uiso
O O -0.0581598 0.60569 0.00405009 0.1600 Uiso
CB C -0.0832927 0.627767 0.057611 0.1743 Uiso
CB C -0.0831272 0.627564 0.0582994 0.1758 Uiso
CG1 C -0.0933892 0.612642 0.0431551 0.1899 Uiso
CG1 C -0.0901426 0.641556 0.034471 0.1706 Uiso
CG2 C -0.087036 0.630275 0.0969014 0.1736 Uiso
CG2 C -0.0925616 0.610745 0.0534014 0.1910 Uiso
N N -0.0597258 0.633408 -0.0102734 0.1550 Uiso
CA C -0.0567593 0.629868 -0.0477899 0.1539 Uiso
C C -0.0389472 0.622636 -0.0536146 0.1472 Uiso
O O -0.0362862 0.612362 -0.0773107 0.1532 Uiso
CB C -0.0594839 0.645745 -0.0702151 0.1617 Uiso
N N -0.0266735 0.628226 -0.0324074 0.1406 Uiso
CA C -0.00949807 0.621529 -0.0360081 0.1239 Uiso
C C -0.00985457 0.602736 -0.0258413 0.1335 Uiso
O O -0.00297929 0.591876 -0.0447187 0.1246 Uiso
CB C 0.003183 0.63081 -0.0120208 0.1083 Uiso
CG C 0.0204476 0.622827 -0.0142448 0.1089 Uiso
CD1 C 0.0322629 0.62517 -0.0404296 0.1294 Uiso
CD2 C 0.0275393 0.610401 0.00942472 0.1194 Uiso
NE1 N 0.046179 0.614921 -0.0346313 0.1210 Uiso
CE2 C 0.0436835 0.605805 -0.00418395 0.1115 Uiso
CE3 C 0.0218863 0.602736 0.0409576 0.1160 Uiso
CZ2 C 0.0541747 0.593875 0.0126018 0.1244 Uiso
CZ3 C 0.032352 0.590934 0.0576375 0.1170 Uiso
CH2 C 0.0483052 0.58663 0.0433405 0.1163 Uiso
N N -0.0177229 0.598955 0.00423542 0.1313 Uiso
CA C -0.0187033 0.581512 0.0167586 0.1643 Uiso
C C -0.0277812 0.569773 -0.00979686 0.1644 Uiso
O O -0.0217463 0.555755 -0.017925 0.1672 Uiso
CB C -0.0280486 0.581041 0.0521305 0.1918 Uiso
CG C -0.0253494 0.564744 0.0721728 0.2891 Uiso
CD C -0.037865 0.563191 0.102567 0.3642 Uiso
NE N -0.041379 0.57978 0.118347 0.4359 Uiso
CZ C -0.0569375 0.585968 0.123404 0.4622 Uiso
NH1 N -0.0704462 0.576763 0.113952 0.4671 Uiso
NH2 N -0.0589746 0.601412 0.137118 0.4768 Uiso
N N -0.0418374 0.575859 -0.0245175 0.1515 Uiso
CA C -0.0516792 0.56552 -0.0489019 0.1555 Uiso
C C -0.0462808 0.565457 -0.0871333 0.1505 Uiso
O O -0.0496421 0.553081 -0.105799 0.1629 Uiso
CB C -0.0704334 0.570473 -0.0467309 0.1510 Uiso
CG C -0.0782127 0.565762 -0.0115972 0.1627 Uiso
OD1 O -0.073209 0.553081 0.00455313 0.1863 Uiso
ND2 N -0.0903335 0.575833 0.000634684 0.1570 Uiso
N N -0.0371392 0.578558 -0.0985709 0.1422 Uiso
CA C -0.0325303 0.579997 -0.135664 0.1522 Uiso
C C -0.0138397 0.582276 -0.144957 0.1602 Uiso
O O -0.00916704 0.580315 -0.175722 0.1820 Uiso
CB C -0.0430342 0.594384 -0.151682 0.1487 Uiso
CG C -0.0618521 0.592551 -0.142548 0.1620 Uiso
CD C -0.0722541 0.607014 -0.156315 0.1624 Uiso
NE N -0.0740748 0.60653 -0.194732 0.1758 Uiso
CZ C -0.0837002 0.617442 -0.212709 0.1749 Uiso
NH1 N -0.0921924 0.629435 -0.19542 0.1762 Uiso
NH2 N -0.0847442 0.61641 -0.24771 0.1843 Uiso
N N -0.00323393 0.586248 -0.118878 0.1397 Uiso
CA C 0.0148582 0.588884 -0.125497 0.1360 Uiso
C C 0.0260879 0.575884 -0.10752 0.1411 Uiso
O O 0.0385143 0.569939 -0.123008 0.1624 Uiso
CB C 0.0202057 0.606454 -0.112815 0.1237 Uiso
SG S 0.00805936 0.623273 -0.133493 0.1397 Uiso
N N 0.0220136 0.57209 -0.0743453 0.1408 Uiso
CA C 0.0316008 0.56002 -0.0529792 0.1515 Uiso
C C 0.0344019 0.54338 -0.0725979 0.1720 Uiso
O O 0.0222173 0.535537 -0.0854917 0.1712 Uiso
CB C 0.0220646 0.556481 -0.018481 0.1468 Uiso
CG C 0.0323011 0.546652 0.00884224 0.1379 Uiso
CD C 0.0221664 0.544487 0.0429698 0.1425 Uiso
CE C 0.0331923 0.537306 0.0728612 0.1535 Uiso
NZ N 0.0238598 0.536733 0.107412 0.1649 Uiso
N N 0.0505715 0.538376 -0.0750867 0.2106 Uiso
CA C 0.0552569 0.522512 -0.0922696 0.2305 Uiso
C C 0.054633 0.522308 -0.132328 0.2501 Uiso
O O 0.0559571 0.50871 -0.148399 0.2807 Uiso
N N 0.0516792 0.536975 -0.148716 0.2290 Uiso
CA C 0.0511572 0.537968 -0.187186 0.2109 Uiso
C C 0.0681035 0.545251 -0.199603 0.2156 Uiso
O O 0.078862 0.550064 -0.178105 0.1953 Uiso
CB C 0.0365663 0.549682 -0.200265 0.2140 Uiso
OG1 O 0.0403732 0.567048 -0.191634 0.1949 Uiso
CG2 C 0.0195054 0.544322 -0.183426 0.2004 Uiso
N N 0.0706244 0.546079 -0.234234 0.2247 Uiso
CA C 0.0863612 0.553018 -0.248213 0.2467 Uiso
C C 0.0846551 0.572281 -0.247551 0.2371 Uiso
O O 0.080428 0.580099 -0.274424 0.2465 Uiso
CB C 0.0891877 0.546804 -0.28618 0.3074 Uiso
CG C 0.10523 0.554227 -0.302913 0.3655 Uiso
OD1 O 0.11786 0.557512 -0.283691 0.4047 Uiso
OD2 O 0.105128 0.556837 -0.335558 0.4212 Uiso
N N 0.08808 0.579971 -0.217025 0.2135 Uiso
CA C 0.0862593 0.598369 -0.213291 0.2119 Uiso
C C 0.0992969 0.608988 -0.23344 0.2223 Uiso
O O 0.096394 0.624075 -0.240191 0.2102 Uiso
CB C 0.0852153 0.604009 -0.173922 0.2053 Uiso
CG1 C 0.0687783 0.59744 -0.157189 0.2012 Uiso
CG2 C 0.100392 0.597694 -0.153614 0.2161 Uiso
N N 0.113506 0.601208 -0.243686 0.2329 Uiso
CA C 0.126632 0.610197 -0.263596 0.2439 Uiso
C C 0.119261 0.616474 -0.2991 0.2342 Uiso
O O 0.124939 0.629384 -0.313715 0.2346 Uiso
CB C 0.141987 0.598318 -0.269394 0.2984 Uiso
CG C 0.158246 0.606912 -0.2834 0.3892 Uiso
CD C 0.158284 0.609586 -0.323696 0.4542 Uiso
OE1 O 0.152911 0.598407 -0.343871 0.4904 Uiso
NE2 N 0.164688 0.624355 -0.335505 0.4676 Uiso
N N 0.10635 0.6076 -0.312523 0.2253 Uiso
CA C 0.0981383 0.612349 -0.345777 0.2102 Uiso
C C 0.0908556 0.630365 -0.344692 0.2190 Uiso
O O 0.089315 0.638691 -0.372094 0.2133 Uiso
CB C 0.0841967 0.599833 -0.35462 0.2213 Uiso
N N 0.0863484 0.636476 -0.313185 0.2050 Uiso
CA C 0.0792694 0.653639 -0.309426 0.2124 Uiso
C C 0.0921288 0.667682 -0.316495 0.2172 Uiso
O O 0.0874434 0.682222 -0.323537 0.2196 Uiso
CB C 0.0710955 0.655943 -0.272915 0.1972 Uiso
CG C 0.0552569 0.645949 -0.270585 0.2026 Uiso
CD1 C 0.0532198 0.630428 -0.254832 0.1973 Uiso
CD2 C 0.0394692 0.649768 -0.287662 0.1997 Uiso
NE1 N 0.0371774 0.62424 -0.261372 0.1918 Uiso
CE2 C 0.0284433 0.635852 -0.281494 0.2005 Uiso
CE3 C 0.0335616 0.66357 -0.307837 0.2063 Uiso
CZ2 C 0.0118535 0.635292 -0.294864 0.1969 Uiso
CZ3 C 0.0170481 0.663009 -0.321261 0.2029 Uiso
CH2 C 0.00641693 0.648902 -0.314615 0.2109 Uiso
N N 0.108438 0.663455 -0.314747 0.2180 Uiso
CA C 0.121349 0.676238 -0.321552 0.2313 Uiso
C C 0.13142 0.672304 -0.35507 0.2434 Uiso
O O 0.142917 0.681904 -0.364893 0.2406 Uiso
CB C 0.133304 0.678428 -0.289648 0.2376 Uiso
CG1 C 0.141745 0.66152 -0.280355 0.2343 Uiso
CG2 C 0.123284 0.685418 -0.257956 0.2389 Uiso
CD1 C 0.155827 0.663239 -0.253694 0.3045 Uiso
N N 0.126518 0.65877 -0.373604 0.2549 Uiso
CA C 0.135545 0.654212 -0.405851 0.2955 Uiso
C C 0.134208 0.668242 -0.433439 0.2905 Uiso
O O 0.120954 0.676314 -0.437252 0.2954 Uiso
CB C 0.129586 0.636934 -0.420625 0.3493 Uiso
CG C 0.110985 0.635534 -0.432724 0.4296 Uiso
CD C 0.108018 0.642689 -0.469685 0.4942 Uiso
NE N 0.0910083 0.639252 -0.483876 0.5426 Uiso
CZ C 0.0764175 0.644612 -0.469632 0.5560 Uiso
NH1 N 0.0750806 0.647082 -0.435001 0.5660 Uiso
NH2 N 0.0629852 0.647184 -0.489966 0.5820 Uiso
N N 0.14857 0.671858 -0.45041 0.2965 Uiso
CA C 0.149181 0.684794 -0.477707 0.2909 Uiso
C C 0.151995 0.702733 -0.464602 0.2890 Uiso
O O 0.155038 0.714332 -0.485835 0.3062 Uiso
N N 0.151116 0.705343 -0.430024 0.2765 Uiso
CA C 0.153344 0.722442 -0.415833 0.2713 Uiso
C C 0.171844 0.727357 -0.410749 0.2847 Uiso
O O 0.182488 0.716675 -0.402674 0.2960 Uiso
CB C 0.143999 0.724365 -0.380593 0.2443 Uiso
SG S 0.122087 0.717006 -0.380514 0.2386 Uiso
N N 0.175574 0.743667 -0.415277 0.3104 Uiso
CA C 0.192712 0.750173 -0.410061 0.3480 Uiso
C C 0.191999 0.757226 -0.372412 0.3656 Uiso
O O 0.184258 0.770582 -0.366482 0.3831 Uiso
CB C 0.196187 0.764191 -0.437305 0.3687 Uiso
CG C 0.21405 0.771817 -0.435716 0.4172 Uiso
CD C 0.218035 0.782155 -0.468811 0.4414 Uiso
NE N 0.203546 0.792519 -0.479958 0.4984 Uiso
CZ C 0.197639 0.793207 -0.513 0.5217 Uiso
NH1 N 0.205036 0.784167 -0.538549 0.5342 Uiso
NH2 N 0.184117 0.802769 -0.520413 0.5447 Uiso
N N 0.199243 0.747957 -0.346942 0.3859 Uiso
CA C 0.198594 0.753114 -0.309479 0.4166 Uiso
C C 0.214241 0.761708 -0.292878 0.4353 Uiso
O O 0.213834 0.777445 -0.288774 0.4463 Uiso
CB C 0.193144 0.738141 -0.285942 0.4143 Uiso
CG C 0.174479 0.732806 -0.282288 0.4250 Uiso
CD1 C 0.163097 0.748212 -0.283453 0.4207 Uiso
CD2 C 0.169718 0.720367 -0.310776 0.4439 Uiso
OXT O 0.226375 0.752745 -0.281944 0.4456 Uiso
N N 0.371738 0.542474 0.0235236 0.1693 Uiso
CA C 0.367282 0.530926 -0.00644728 0.1810 Uiso
C C 0.348082 0.530748 -0.0129339 0.1810 Uiso
O O 0.338062 0.530429 0.0122183 0.1730 Uiso
CB C 0.373393 0.512732 0.00168086 0.1916 Uiso
CG C 0.367027 0.499516 -0.0238155 0.2130 Uiso
CD C 0.373813 0.481946 -0.0152373 0.2253 Uiso
CD C 0.37338 0.481831 -0.0135428 0.2173 Uiso
CE C 0.365525 0.468717 -0.0390657 0.2386 Uiso
CE C 0.364124 0.467966 -0.0341676 0.2295 Uiso
NZ N 0.373737 0.451695 -0.0362328 0.2372 Uiso
NZ N 0.366276 0.46901 -0.0734316 0.2186 Uiso
N N 0.343027 0.53141 -0.0464525 0.1769 Uiso
CA C 0.32505 0.530773 -0.0557721 0.1863 Uiso
C C 0.321879 0.512707 -0.0689042 0.1943 Uiso
O O 0.329238 0.507308 -0.0952743 0.2191 Uiso
CB C 0.320148 0.544078 -0.0843661 0.1782 Uiso
CG1 C 0.301381 0.541876 -0.0951154 0.2006 Uiso
CG2 C 0.322885 0.562043 -0.0699897 0.1883 Uiso
N N 0.312139 0.502903 -0.0488354 0.1785 Uiso
CA C 0.308574 0.485345 -0.0586579 0.1921 Uiso
C C 0.295269 0.483627 -0.0873579 0.2007 Uiso
O O 0.284536 0.494844 -0.0923354 0.2040 Uiso
CB C 0.302005 0.475389 -0.026622 0.1835 Uiso
CG C 0.315742 0.468081 -0.00361434 0.1862 Uiso
CD1 C 0.323687 0.478114 0.0221203 0.1754 Uiso
CD2 C 0.320479 0.450995 -0.0069768 0.1838 Uiso
CE1 C 0.336126 0.471213 0.0441748 0.1918 Uiso
CE2 C 0.332943 0.443916 0.0149453 0.1959 Uiso
CZ C 0.340786 0.45405 0.0406535 0.2058 Uiso
N N 0.296504 0.469698 -0.106871 0.2119 Uiso
CA C 0.282996 0.465509 -0.131626 0.1969 Uiso
C C 0.269704 0.456151 -0.110551 0.1854 Uiso
O O 0.27374 0.44939 -0.0820627 0.1743 Uiso
N N 0.254043 0.455514 -0.12265 0.1852 Uiso
CA C 0.240496 0.447213 -0.102846 0.1853 Uiso
C C 0.244647 0.428777 -0.0931562 0.1877 Uiso
O O 0.244583 0.424105 -0.061941 0.1782 Uiso
CB C 0.223932 0.44813 -0.123815 0.1883 Uiso
CG C 0.208832 0.440312 -0.105309 0.1924 Uiso
CD C 0.192713 0.442744 -0.126754 0.2280 Uiso
NE N 0.193515 0.435156 -0.162153 0.2675 Uiso
CZ C 0.190982 0.418681 -0.16946 0.2847 Uiso
NH1 N 0.18748 0.407515 -0.143937 0.2699 Uiso
NH2 N 0.191593 0.413359 -0.20282 0.2912 Uiso
N N 0.248492 0.418337 -0.119818 0.1939 Uiso
CA C 0.252655 0.400359 -0.113278 0.1977 Uiso
C C 0.26964 0.397902 -0.0944005 0.1828 Uiso
O O 0.271868 0.385896 -0.0740935 0.1891 Uiso
CB C 0.252248 0.390174 -0.147909 0.2029 Uiso
SG S 0.231215 0.389588 -0.167951 0.2204 Uiso
N N 0.281532 0.409628 -0.100172 0.1833 Uiso
CA C 0.298147 0.408584 -0.0829629 0.1760 Uiso
C C 0.295791 0.410787 -0.0431695 0.1662 Uiso
O O 0.303647 0.401976 -0.0219887 0.1558 Uiso
CB C 0.309911 0.422513 -0.0968363 0.1938 Uiso
CG C 0.327889 0.421647 -0.0820627 0.2031 Uiso
CD C 0.338456 0.437206 -0.0912234 0.2181 Uiso
OE1 O 0.330995 0.45046 -0.100834 0.2403 Uiso
OE2 O 0.35432 0.436455 -0.0879669 0.2296 Uiso
N N 0.284829 0.422729 -0.033241 0.1602 Uiso
CA C 0.281201 0.42576 0.0040637 0.1645 Uiso
C C 0.271435 0.410596 0.0198434 0.1674 Uiso
O O 0.275191 0.404854 0.0492847 0.1759 Uiso
CB C 0.270849 0.442146 0.00851166 0.1612 Uiso
CG C 0.26675 0.44608 0.0471401 0.1603 Uiso
CD1 C 0.283301 0.448741 0.0684533 0.1643 Uiso
CD2 C 0.255622 0.461728 0.0487287 0.1598 Uiso
N N 0.258767 0.404332 0.000383532 0.1669 Uiso
CA C 0.248709 0.389664 0.01198 0.1716 Uiso
C C 0.260613 0.374794 0.0206112 0.1643 Uiso
O O 0.259416 0.367091 0.0488611 0.1726 Uiso
CB C 0.235926 0.38447 -0.0171436 0.1631 Uiso
N N 0.272454 0.371139 -0.00334958 0.1706 Uiso
CA C 0.284524 0.357274 0.00213095 0.1785 Uiso
C C 0.295677 0.360419 0.0346435 0.1791 Uiso
O O 0.298503 0.349011 0.0560626 0.1858 Uiso
CB C 0.29555 0.354906 -0.0307522 0.1886 Uiso
N N 0.30189 0.376016 0.0385884 0.1800 Uiso
CA C 0.312636 0.380357 0.0686916 0.1717 Uiso
C C 0.302909 0.378511 0.103613 0.1815 Uiso
O O 0.309809 0.372082 0.129772 0.1779 Uiso
CB C 0.319486 0.398526 0.0647467 0.1868 Uiso
N N 0.286917 0.384164 0.103984 0.1696 Uiso
CA C 0.276566 0.383158 0.135782 0.1681 Uiso
C C 0.27281 0.364901 0.145313 0.1781 Uiso
O O 0.273498 0.360164 0.176449 0.1923 Uiso
CB C 0.260129 0.392937 0.130698 0.1493 Uiso
CG C 0.26279 0.411945 0.13189 0.1667 Uiso
SD S 0.243246 0.423328 0.126224 0.1804 Uiso
CE C 0.247283 0.442057 0.152859 0.1774 Uiso
N N 0.269423 0.354588 0.118308 0.1916 Uiso
CA C 0.265566 0.336572 0.123259 0.2232 Uiso
C C 0.28087 0.327609 0.139091 0.2221 Uiso
O O 0.279227 0.318263 0.16517 0.2220 Uiso
CB C 0.260753 0.328474 0.0878073 0.2449 Uiso
CG C 0.255724 0.309886 0.0898195 0.3055 Uiso
CD C 0.244507 0.305493 0.058366 0.3447 Uiso
CE C 0.239274 0.286917 0.0580747 0.3925 Uiso
NZ N 0.253381 0.276184 0.0449956 0.4345 Uiso
N N 0.295868 0.331428 0.124609 0.2348 Uiso
CA C 0.311808 0.323916 0.136814 0.2449 Uiso
C C 0.31503 0.32878 0.175178 0.2385 Uiso
O O 0.322223 0.318824 0.195432 0.2315 Uiso
CB C 0.326641 0.329913 0.11378 0.2722 Uiso
CG C 0.339602 0.316074 0.106632 0.3560 Uiso
CD C 0.35758 0.32137 0.116587 0.4045 Uiso
NE N 0.361896 0.338635 0.105334 0.4486 Uiso
CZ C 0.375468 0.347076 0.117116 0.4653 Uiso
NH1 N 0.386049 0.339666 0.139859 0.4852 Uiso
NH2 N 0.378282 0.363016 0.106923 0.4870 Uiso
N N 0.309427 0.344084 0.185212 0.2263 Uiso
CA C 0.311515 0.350183 0.221352 0.2263 Uiso
C C 0.297472 0.344759 0.247034 0.2232 Uiso
O O 0.296632 0.351112 0.276952 0.2273 Uiso
CB C 0.314215 0.369382 0.221935 0.2297 Uiso
CG C 0.332052 0.374539 0.213251 0.2690 Uiso
ND1 N 0.337132 0.37883 0.179494 0.2741 Uiso
CD2 C 0.346197 0.375685 0.233769 0.2757 Uiso
CE1 C 0.353646 0.382407 0.179547 0.2829 Uiso
NE2 N 0.359388 0.380574 0.212297 0.2912 Uiso
N N 0.286497 0.333147 0.234961 0.2305 Uiso
CA C 0.273014 0.326119 0.257095 0.2335 Uiso
C C 0.256933 0.336279 0.263873 0.2530 Uiso
O O 0.247728 0.332842 0.289501 0.2501 Uiso
N N 0.253394 0.348731 0.241342 0.2480 Uiso
CA C 0.238115 0.358968 0.245816 0.2401 Uiso
C C 0.221831 0.351125 0.231016 0.2441 Uiso
O O 0.207915 0.355925 0.242162 0.2543 Uiso
CB C 0.2407 0.376767 0.230301 0.2276 Uiso
CG C 0.251153 0.389142 0.252567 0.2211 Uiso
CD1 C 0.250504 0.406598 0.234696 0.2394 Uiso
CD2 C 0.243909 0.390467 0.289846 0.2191 Uiso
N N 0.22313 0.339068 0.206446 0.2381 Uiso
CA C 0.207622 0.33153 0.191805 0.2515 Uiso
C C 0.198124 0.32221 0.22114 0.2462 Uiso
O O 0.204745 0.310306 0.237423 0.2498 Uiso
CB C 0.211416 0.319486 0.160828 0.2764 Uiso
CG C 0.19517 0.31298 0.14203 0.3122 Uiso
OD1 O 0.181153 0.320632 0.145631 0.3095 Uiso
OD2 O 0.196533 0.299917 0.123047 0.3510 Uiso
N N 0.182897 0.328462 0.228845 0.2354 Uiso
CA C 0.171985 0.321345 0.256115 0.2371 Uiso
C C 0.178339 0.324528 0.293817 0.2204 Uiso
O O 0.172138 0.31671 0.318996 0.2197 Uiso
CB C 0.168892 0.302361 0.24939 0.2951 Uiso
CG C 0.162118 0.298962 0.212324 0.3612 Uiso
OD1 O 0.148088 0.304513 0.202925 0.4034 Uiso
ND2 N 0.172253 0.290342 0.19064 0.4022 Uiso
N N 0.19032 0.336356 0.298212 0.1991 Uiso
CA C 0.196507 0.340404 0.333505 0.1823 Uiso
C C 0.181636 0.348604 0.353547 0.1953 Uiso
O O 0.174137 0.360992 0.34113 0.1806 Uiso
CB C 0.211658 0.352563 0.332181 0.1697 Uiso
CG C 0.219641 0.354651 0.368109 0.1859 Uiso
CD1 C 0.231291 0.342734 0.380817 0.1901 Uiso
CD2 C 0.214956 0.368071 0.390243 0.1835 Uiso
CE1 C 0.237963 0.344071 0.41468 0.2180 Uiso
CE2 C 0.221462 0.369535 0.424105 0.1977 Uiso
CZ C 0.232959 0.357529 0.436178 0.2261 Uiso
OH O 0.23921 0.358828 0.470015 0.2661 Uiso
N N 0.177231 0.341219 0.384021 0.2018 Uiso
CA C 0.162857 0.34691 0.406181 0.2216 Uiso
C C 0.146292 0.346096 0.385398 0.1964 Uiso
O O 0.134553 0.355937 0.392308 0.2080 Uiso
CB C 0.16539 0.364952 0.420822 0.2504 Uiso
CG C 0.17965 0.366607 0.447113 0.3347 Uiso
CD C 0.176072 0.356816 0.480658 0.4148 Uiso
NE N 0.191937 0.352754 0.4989 0.4937 Uiso
CZ C 0.193643 0.35171 0.533822 0.5319 Uiso
NH1 N 0.180554 0.355301 0.555082 0.5430 Uiso
NH2 N 0.208768 0.347853 0.547537 0.5658 Uiso
N N 0.145681 0.334675 0.359478 0.1766 Uiso
CA C 0.130581 0.332651 0.337741 0.1796 Uiso
C C 0.128557 0.344924 0.306737 0.1734 Uiso
O O 0.115303 0.344835 0.288972 0.1793 Uiso
N N 0.141365 0.355505 0.299721 0.1652 Uiso
CA C 0.140155 0.3676 0.27028 0.1484 Uiso
C C 0.149259 0.360827 0.238006 0.1474 Uiso
O O 0.164766 0.359311 0.23782 0.1455 Uiso
CB C 0.147387 0.384915 0.280632 0.1386 Uiso
CG C 0.136629 0.393751 0.308035 0.1211 Uiso
CD1 C 0.122955 0.403912 0.297921 0.1223 Uiso
CD2 C 0.140117 0.391982 0.344148 0.1229 Uiso
CE1 C 0.113024 0.412213 0.323073 0.1211 Uiso
CE2 C 0.130186 0.400232 0.369512 0.1268 Uiso
CZ C 0.116639 0.410379 0.358604 0.1189 Uiso
OH O 0.107001 0.419177 0.382882 0.1349 Uiso
N N 0.139481 0.357172 0.210338 0.1568 Uiso
CA C 0.146789 0.350361 0.177932 0.1636 Uiso
C C 0.158719 0.363309 0.161384 0.1682 Uiso
O O 0.157305 0.378664 0.168109 0.1557 Uiso
CB C 0.132847 0.345332 0.152038 0.1679 Uiso
OG O 0.122242 0.359362 0.14346 0.2001 Uiso
N N 0.170178 0.356969 0.139277 0.1716 Uiso
CA C 0.182833 0.367409 0.121697 0.1644 Uiso
C C 0.175767 0.383044 0.10311 0.1539 Uiso
O O 0.183572 0.396667 0.104222 0.1463 Uiso
CB C 0.192675 0.356383 0.0955383 0.1804 Uiso
CG C 0.210283 0.362087 0.0836506 0.1801 Uiso
CD1 C 0.221551 0.364964 0.115634 0.1971 Uiso
CD2 C 0.217859 0.348438 0.0597427 0.1859 Uiso
N N 0.161138 0.381261 0.0858745 0.1460 Uiso
CA C 0.153613 0.395687 0.0674208 0.1398 Uiso
C C 0.150443 0.410927 0.0913551 0.1308 Uiso
O O 0.151487 0.425416 0.0797851 0.1491 Uiso
N N 0.146649 0.407655 0.124927 0.1168 Uiso
CA C 0.143504 0.421405 0.150211 0.1234 Uiso
C C 0.159559 0.431884 0.15593 0.1265 Uiso
O O 0.15905 0.447481 0.156645 0.1307 Uiso
CB C 0.137647 0.414301 0.185821 0.1384 Uiso
CG C 0.119237 0.40917 0.185477 0.1406 Uiso
OD1 O 0.108045 0.419916 0.186907 0.1416 Uiso
ND2 N 0.115952 0.392657 0.182591 0.1581 Uiso
N N 0.173857 0.423111 0.159716 0.1178 Uiso
CA C 0.190141 0.431375 0.165753 0.1222 Uiso
C C 0.196087 0.441382 0.133823 0.1225 Uiso
O O 0.202912 0.455374 0.137529 0.1310 Uiso
CB C 0.20337 0.418108 0.176343 0.1203 Uiso
CG C 0.198837 0.409756 0.210206 0.1170 Uiso
CD1 C 0.192013 0.393942 0.214654 0.1325 Uiso
CD2 C 0.200773 0.416822 0.244969 0.1335 Uiso
NE1 N 0.189632 0.390658 0.250079 0.1298 Uiso
CE2 C 0.19489 0.404472 0.2693 0.1330 Uiso
CE3 C 0.206948 0.432457 0.257969 0.1458 Uiso
CZ2 C 0.195069 0.407171 0.305943 0.1555 Uiso
CZ3 C 0.207113 0.435118 0.294373 0.1663 Uiso
CH2 C 0.201167 0.422539 0.317937 0.1686 Uiso
N N 0.193464 0.434303 0.102422 0.1194 Uiso
CA C 0.198684 0.442935 0.0700684 0.1183 Uiso
C C 0.187595 0.458583 0.064376 0.1137 Uiso
O O 0.193872 0.472257 0.0556389 0.1269 Uiso
CB C 0.197882 0.430853 0.0378471 0.1402 Uiso
CG1 C 0.201982 0.440733 0.00353418 0.1522 Uiso
CG2 C 0.210398 0.415982 0.0432482 0.1294 Uiso
N N 0.171171 0.456673 0.0705979 0.1046 Uiso
CA C 0.159495 0.470856 0.0668118 0.1153 Uiso
C C 0.164232 0.485014 0.0931554 0.1165 Uiso
O O 0.164359 0.500076 0.0838624 0.1212 Uiso
CB C 0.141314 0.464758 0.0735897 0.1232 Uiso
SG S 0.125323 0.481144 0.0678179 0.1411 Uiso
N N 0.168293 0.480138 0.125853 0.1141 Uiso
CA C 0.173055 0.49259 0.152726 0.1324 Uiso
C C 0.189034 0.502228 0.141024 0.1311 Uiso
O O 0.18953 0.517914 0.142613 0.1432 Uiso
CB C 0.176047 0.483932 0.188178 0.1340 Uiso
N N 0.201727 0.492934 0.127918 0.1211 Uiso
CA C 0.217477 0.500866 0.116004 0.1180 Uiso
C C 0.214128 0.512872 0.0850273 0.1258 Uiso
O O 0.2215 0.526712 0.0830416 0.1334 Uiso
CB C 0.230464 0.487344 0.105626 0.1098 Uiso
N N 0.203153 0.507626 0.0607223 0.1213 Uiso
CA C 0.199079 0.518219 0.0301955 0.1370 Uiso
C C 0.192229 0.535471 0.0414478 0.1444 Uiso
O O 0.198353 0.548827 0.0297984 0.1546 Uiso
CB C 0.185711 0.509549 0.00689663 0.1579 Uiso
CG C 0.17839 0.521033 -0.0218828 0.1791 Uiso
CD C 0.191809 0.526113 -0.048703 0.2202 Uiso
CE C 0.184297 0.537687 -0.0767675 0.2466 Uiso
NZ N 0.197399 0.542207 -0.103349 0.2831 Uiso
N N 0.179485 0.53514 0.0644025 0.1388 Uiso
CA C 0.171705 0.55089 0.0754695 0.1412 Uiso
C C 0.18086 0.560757 0.103613 0.1408 Uiso
O O 0.178186 0.575985 0.106738 0.1659 Uiso
CB C 0.152887 0.548101 0.083677 0.1483 Uiso
CG C 0.142918 0.542576 0.0516675 0.1394 Uiso
CD1 C 0.143873 0.552023 0.0202405 0.1392 Uiso
CD2 C 0.133382 0.527692 0.0521176 0.1524 Uiso
CE1 C 0.135457 0.546574 -0.0104981 0.1650 Uiso
CE2 C 0.124928 0.522103 0.0216173 0.1812 Uiso
CZ C 0.125959 0.531601 -0.00978325 0.1622 Uiso
N N 0.191873 0.552418 0.123576 0.1194 Uiso
CA C 0.201371 0.561445 0.150635 0.1277 Uiso
C C 0.216904 0.570446 0.135464 0.1392 Uiso
O O 0.220049 0.585177 0.143751 0.1393 Uiso
CB C 0.207406 0.549184 0.17952 0.1229 Uiso
CG C 0.193375 0.542971 0.204487 0.1389 Uiso
CD C 0.186564 0.556925 0.228845 0.1560 Uiso
OE1 O 0.194394 0.570739 0.230486 0.1619 Uiso
OE2 O 0.173488 0.554136 0.246663 0.1692 Uiso
N N 0.226186 0.561827 0.112033 0.1302 Uiso
CA C 0.242126 0.568778 0.0980535 0.1364 Uiso
C C 0.244672 0.568193 0.0582071 0.1415 Uiso
O O 0.25813 0.573387 0.0452339 0.1387 Uiso
CB C 0.256653 0.558453 0.113992 0.1336 Uiso
OG O 0.256335 0.541634 0.0999068 0.1337 Uiso
N N 0.232259 0.561203 0.0391709 0.1437 Uiso
CA C 0.233379 0.558898 0.000913052 0.1654 Uiso
C C 0.248568 0.547248 -0.00713565 0.1496 Uiso
O O 0.257494 0.549502 -0.0332939 0.1498 Uiso
CB C 0.234703 0.575921 -0.0189175 0.2099 Uiso
CG C 0.228248 0.574648 -0.0565928 0.2439 Uiso
OD1 O 0.218177 0.563329 -0.0653829 0.2777 Uiso
ND2 N 0.233799 0.586323 -0.0790974 0.2832 Uiso
N N 0.251446 0.535102 0.0167192 0.1368 Uiso
CA C 0.264993 0.522408 0.0140716 0.1399 Uiso
C C 0.28297 0.529767 0.0166663 0.1422 Uiso
O O 0.295231 0.521517 0.00578464 0.1474 Uiso
CB C 0.26363 0.51249 -0.0208237 0.1500 Uiso
CG C 0.247244 0.502941 -0.0257218 0.1397 Uiso
CD1 C 0.238994 0.495455 0.0027399 0.1360 Uiso
CD2 C 0.240573 0.500866 -0.0595846 0.1515 Uiso
CE1 C 0.224339 0.48574 -0.00247588 0.1522 Uiso
CE2 C 0.226046 0.491266 -0.0651975 0.1600 Uiso
CZ C 0.217897 0.48369 -0.0364446 0.1460 Uiso
N N 0.284549 0.545071 0.0312016 0.1334 Uiso
CA C 0.301088 0.553513 0.0343787 0.1339 Uiso
C C 0.307747 0.551692 0.0720276 0.1250 Uiso
O O 0.300311 0.558644 0.0968886 0.1312 Uiso
CB C 0.299025 0.572381 0.0249797 0.1308 Uiso
CG C 0.315755 0.582096 0.0247415 0.1460 Uiso
OD1 O 0.329531 0.575119 0.0313605 0.1475 Uiso
ND2 N 0.314584 0.598482 0.0167722 0.1855 Uiso
N N 0.322083 0.542894 0.0760255 0.1274 Uiso
CA C 0.329608 0.540195 0.110815 0.1308 Uiso
C C 0.335579 0.556581 0.12813 0.1203 Uiso
O O 0.337183 0.557307 0.16006 0.1235 Uiso
CB C 0.345064 0.528138 0.109332 0.1343 Uiso
OG1 O 0.358369 0.535662 0.088628 0.1451 Uiso
CG2 C 0.340073 0.51114 0.0932613 0.1443 Uiso
N N 0.338673 0.569695 0.106791 0.1225 Uiso
CA C 0.345217 0.585826 0.120532 0.1253 Uiso
C C 0.331861 0.598966 0.130672 0.1374 Uiso
O O 0.336075 0.613124 0.141527 0.1519 Uiso
CB C 0.357745 0.593555 0.0938438 0.1386 Uiso
CG C 0.373291 0.582402 0.0865894 0.1349 Uiso
CD C 0.387475 0.592205 0.068771 0.1553 Uiso
OE1 O 0.396463 0.602149 0.0857686 0.1893 Uiso
NE2 N 0.389142 0.590003 0.0342728 0.1553 Uiso
N N 0.315755 0.594217 0.128024 0.1337 Uiso
CA C 0.302068 0.606007 0.13655 0.1450 Uiso
C C 0.301865 0.61129 0.175469 0.1311 Uiso
O O 0.304386 0.600799 0.199245 0.1225 Uiso
CB C 0.284906 0.598189 0.126383 0.1411 Uiso
N N 0.299624 0.627778 0.181506 0.1230 Uiso
CA C 0.29816 0.63459 0.21701 0.1349 Uiso
C C 0.2839 0.647551 0.216136 0.1327 Uiso
O O 0.281048 0.656082 0.189396 0.1519 Uiso
CB C 0.314457 0.643719 0.229798 0.1494 Uiso
OG1 O 0.318811 0.657011 0.205334 0.1681 Uiso
CG2 C 0.329238 0.63142 0.233717 0.1473 Uiso
N N 0.274745 0.648964 0.245339 0.1375 Uiso
CA C 0.261122 0.661353 0.247961 0.1522 Uiso
C C 0.259556 0.667107 0.286139 0.1475 Uiso
O O 0.258907 0.656629 0.31002 0.1440 Uiso
CB C 0.244481 0.653675 0.23467 0.1909 Uiso
CG C 0.244558 0.650823 0.194532 0.2229 Uiso
OD1 O 0.246824 0.636589 0.181797 0.2591 Uiso
ND2 N 0.242559 0.664536 0.174649 0.2258 Uiso
N N 0.259543 0.683863 0.291699 0.1598 Uiso
CA C 0.258232 0.691235 0.32723 0.1776 Uiso
C C 0.239656 0.692457 0.338191 0.1858 Uiso
O O 0.228732 0.696773 0.316639 0.1988 Uiso
CB C 0.26582 0.709225 0.327812 0.2094 Uiso
CG C 0.269436 0.716164 0.36472 0.2314 Uiso
CD C 0.286688 0.710142 0.37629 0.2910 Uiso
NE N 0.290215 0.713185 0.413674 0.3370 Uiso
CZ C 0.300095 0.725675 0.425959 0.3282 Uiso
NH1 N 0.307301 0.736599 0.403772 0.3320 Uiso
NH2 N 0.304042 0.726209 0.460113 0.3146 Uiso
N N 0.236244 0.688866 0.371762 0.1940 Uiso
CA C 0.219081 0.689758 0.386245 0.2195 Uiso
C C 0.21777 0.706233 0.407081 0.2261 Uiso
O O 0.230693 0.713325 0.417857 0.2366 Uiso
CB C 0.215771 0.674428 0.410153 0.2324 Uiso
CG C 0.218012 0.657495 0.390799 0.2392 Uiso
OD1 O 0.226848 0.646011 0.403348 0.2750 Uiso
ND2 N 0.210156 0.656005 0.360034 0.2646 Uiso
N N 0.202237 0.712115 0.413886 0.2624 Uiso
CA C 0.199461 0.728157 0.433213 0.2837 Uiso
C C 0.206209 0.727903 0.470862 0.2736 Uiso
O O 0.211595 0.74108 0.484471 0.2956 Uiso
CB C 0.180427 0.733276 0.434113 0.3035 Uiso
OG1 O 0.170598 0.719945 0.449972 0.3435 Uiso
CG2 C 0.174074 0.736306 0.396941 0.3161 Uiso
N N 0.206005 0.713019 0.487595 0.2570 Uiso
CA C 0.21241 0.711555 0.523549 0.2524 Uiso
C C 0.231902 0.711911 0.524741 0.2462 Uiso
O O 0.239401 0.710358 0.553282 0.2660 Uiso
CB C 0.20556 0.6955 0.541632 0.2517 Uiso
CG C 0.211467 0.679343 0.524185 0.2769 Uiso
OD1 O 0.219909 0.680069 0.496464 0.3011 Uiso
OD2 O 0.20761 0.665554 0.537926 0.3062 Uiso
N N 0.240114 0.713337 0.494029 0.2215 Uiso
CA C 0.258538 0.71405 0.493261 0.1920 Uiso
C C 0.267348 0.697244 0.485715 0.1890 Uiso
O O 0.282818 0.696837 0.479758 0.1967 Uiso
N N 0.257837 0.683277 0.486668 0.1648 Uiso
CA C 0.265247 0.666764 0.479017 0.1505 Uiso
C C 0.267017 0.665618 0.438694 0.1407 Uiso
O O 0.260664 0.676593 0.419472 0.1508 Uiso
CB C 0.253687 0.652695 0.492546 0.1541 Uiso
OG O 0.237912 0.653102 0.474489 0.1748 Uiso
N N 0.275777 0.652593 0.425879 0.1293 Uiso
CA C 0.278209 0.650518 0.387807 0.1318 Uiso
C C 0.275433 0.631814 0.379176 0.1286 Uiso
O O 0.278972 0.62089 0.401495 0.1307 Uiso
CB C 0.296492 0.655751 0.376846 0.1405 Uiso
OG1 O 0.299382 0.673295 0.386139 0.1312 Uiso
CG2 C 0.29928 0.653433 0.336973 0.1417 Uiso
N N 0.268163 0.62844 0.34804 0.1170 Uiso
CA C 0.265005 0.611176 0.335226 0.1273 Uiso
C C 0.279494 0.607089 0.310126 0.1216 Uiso
O O 0.284269 0.617784 0.288416 0.1179 Uiso
CB C 0.248123 0.610221 0.315845 0.1384 Uiso
CG C 0.233252 0.612996 0.339991 0.1738 Uiso
OD1 O 0.234932 0.610463 0.372212 0.1830 Uiso
OD2 O 0.21954 0.617605 0.326674 0.2647 Uiso
N N 0.285899 0.591441 0.312324 0.1237 Uiso
CA C 0.300604 0.586081 0.291778 0.1160 Uiso
C C 0.298771 0.569873 0.271471 0.1253 Uiso
O O 0.292303 0.557154 0.285001 0.1321 Uiso
CB C 0.315615 0.582924 0.316613 0.1165 Uiso
CG C 0.321892 0.598431 0.335543 0.1212 Uiso
CD1 C 0.314355 0.603779 0.367023 0.1246 Uiso
CD2 C 0.335248 0.608056 0.321696 0.1211 Uiso
CE1 C 0.319893 0.618344 0.384206 0.1226 Uiso
CE2 C 0.340888 0.622584 0.338667 0.1369 Uiso
CZ C 0.333096 0.627562 0.369856 0.1310 Uiso
OH O 0.338546 0.641898 0.386801 0.1424 Uiso
N N 0.305442 0.570204 0.239409 0.1273 Uiso
CA C 0.306041 0.554951 0.21836 0.1343 Uiso
C C 0.290699 0.549222 0.198133 0.1197 Uiso
O O 0.277305 0.557358 0.197286 0.1213 Uiso
N N 0.29285 0.534084 0.18365 0.1311 Uiso
CA C 0.280348 0.526101 0.161543 0.1436 Uiso
C C 0.26321 0.523567 0.180209 0.1348 Uiso
O O 0.249893 0.524535 0.16329 0.1417 Uiso
CB C 0.288025 0.509574 0.14526 0.1763 Uiso
CG1 C 0.278425 0.504825 0.111556 0.2052 Uiso
CG2 C 0.288878 0.49534 0.172901 0.1724 Uiso
CD1 C 0.288318 0.493545 0.0871454 0.2457 Uiso
N N 0.263516 0.521173 0.215051 0.1272 Uiso
CA C 0.247881 0.51892 0.234881 0.1381 Uiso
C C 0.2441 0.533994 0.258445 0.1377 Uiso
O O 0.233392 0.53304 0.282088 0.1358 Uiso
CB C 0.248199 0.502279 0.25585 0.1672 Uiso
CG C 0.245984 0.486453 0.232657 0.1816 Uiso
CD1 C 0.249065 0.470474 0.254368 0.1910 Uiso
CD2 C 0.228223 0.486606 0.216242 0.1958 Uiso
N N 0.253458 0.547847 0.252938 0.1260 Uiso
CA C 0.250542 0.563456 0.272848 0.1254 Uiso
C C 0.248658 0.560833 0.3128 0.1241 Uiso
O O 0.236015 0.566015 0.328607 0.1408 Uiso
CB C 0.234882 0.572534 0.257624 0.1211 Uiso
CG C 0.238141 0.580072 0.220929 0.1299 Uiso
CD C 0.250593 0.594713 0.222411 0.1340 Uiso
OE1 O 0.245653 0.609113 0.229613 0.1299 Uiso
NE2 N 0.266979 0.591008 0.216719 0.1367 Uiso
N N 0.261555 0.553131 0.328792 0.1288 Uiso
CA C 0.261644 0.54968 0.366494 0.1397 Uiso
C C 0.265515 0.566079 0.386801 0.1512 Uiso
O O 0.277368 0.575679 0.378143 0.1360 Uiso
CB C 0.273905 0.535128 0.374542 0.1549 Uiso
CG1 C 0.266151 0.518601 0.360272 0.1386 Uiso
CG2 C 0.277737 0.534084 0.414018 0.1688 Uiso
CD1 C 0.277941 0.503578 0.361781 0.1520 Uiso
N N 0.254947 0.5693 0.413303 0.1559 Uiso
CA C 0.255609 0.584935 0.434113 0.1686 Uiso
C C 0.268838 0.585788 0.463978 0.1624 Uiso
O O 0.270468 0.57396 0.485477 0.1755 Uiso
CB C 0.237543 0.588602 0.447484 0.1681 Uiso
CG C 0.236129 0.605612 0.465011 0.1579 Uiso
CG C 0.23534 0.606771 0.460616 0.1857 Uiso
OD1 O 0.236791 0.606681 0.497153 0.1703 Uiso
OD1 O 0.247614 0.61553 0.46885 0.2087 Uiso
ND2 N 0.234398 0.619044 0.444201 0.1479 Uiso
ND2 N 0.219501 0.612182 0.464031 0.2042 Uiso
N N 0.27775 0.600264 0.465885 0.1525 Uiso
CA C 0.290966 0.60332 0.492361 0.1606 Uiso
C C 0.284167 0.606592 0.529904 0.1678 Uiso
O O 0.29392 0.606287 0.5554 0.1844 Uiso
CB C 0.302145 0.61828 0.480764 0.1408 Uiso
OG O 0.292698 0.633686 0.480632 0.1389 Uiso
N N 0.267654 0.610043 0.533081 0.1969 Uiso
CA C 0.259671 0.613175 0.567579 0.2401 Uiso
C C 0.260524 0.59726 0.590587 0.2418 Uiso
O O 0.262676 0.598495 0.622887 0.2457 Uiso
CB C 0.241018 0.618662 0.562813 0.2752 Uiso
CG C 0.230413 0.620139 0.596358 0.3651 Uiso
CD C 0.235276 0.635494 0.618757 0.4343 Uiso
NE N 0.233494 0.651638 0.599615 0.4868 Uiso
CZ C 0.242406 0.665631 0.606975 0.5105 Uiso
NH1 N 0.253776 0.665567 0.633213 0.5375 Uiso
NH2 N 0.240025 0.679674 0.588071 0.5081 Uiso
N N 0.260129 0.582338 0.57388 0.2229 Uiso
CA C 0.260409 0.566537 0.593923 0.2266 Uiso
C C 0.273167 0.553232 0.583438 0.2006 Uiso
O O 0.279724 0.544053 0.60589 0.2104 Uiso
CB C 0.243208 0.557409 0.590692 0.2708 Uiso
CG C 0.228032 0.568256 0.595379 0.3432 Uiso
CD1 C 0.218164 0.575182 0.569167 0.3688 Uiso
CD2 C 0.220876 0.573642 0.628129 0.3807 Uiso
NE1 N 0.20528 0.58463 0.583941 0.3982 Uiso
CE2 C 0.206642 0.583929 0.620054 0.4047 Uiso
CE3 C 0.225142 0.570841 0.663687 0.4112 Uiso
CZ2 C 0.196533 0.591479 0.646398 0.4475 Uiso
CZ3 C 0.215147 0.578327 0.689924 0.4467 Uiso
CH2 C 0.200989 0.588538 0.681108 0.4567 Uiso
N N 0.277801 0.552749 0.549205 0.1881 Uiso
CA C 0.286561 0.537203 0.537396 0.1692 Uiso
C C 0.305481 0.539355 0.5294 0.1639 Uiso
O O 0.314775 0.526508 0.529533 0.1678 Uiso
CB C 0.277878 0.530608 0.504566 0.1720 Uiso
CG C 0.258894 0.528558 0.511423 0.1662 Uiso
CD1 C 0.246404 0.538743 0.499615 0.1674 Uiso
CD2 C 0.251344 0.515355 0.532048 0.1654 Uiso
NE1 N 0.230769 0.532276 0.512774 0.1772 Uiso
CE2 C 0.233863 0.518423 0.532048 0.1763 Uiso
CE3 C 0.257774 0.501222 0.550714 0.1863 Uiso
CZ2 C 0.222175 0.507996 0.550237 0.1764 Uiso
CZ3 C 0.245971 0.490858 0.568744 0.1783 Uiso
CH2 C 0.228885 0.494156 0.568479 0.1836 Uiso
N N 0.311987 0.554417 0.521987 0.1633 Uiso
CA C 0.329926 0.556314 0.514124 0.1549 Uiso
C C 0.336139 0.573171 0.528818 0.1595 Uiso
O O 0.325992 0.584515 0.537502 0.1591 Uiso
CB C 0.333007 0.55518 0.474092 0.1459 Uiso
SG S 0.322223 0.571605 0.44804 0.1410 Uiso
N N 0.352844 0.574533 0.532498 0.1568 Uiso
CA C 0.360559 0.589913 0.546213 0.1687 Uiso
C C 0.36816 0.600965 0.51693 0.1527 Uiso
O O 0.379046 0.594968 0.496835 0.1487 Uiso
CB C 0.374603 0.585495 0.572768 0.1833 Uiso
CG C 0.382267 0.601309 0.589819 0.2379 Uiso
OD1 O 0.373075 0.613226 0.599456 0.2651 Uiso
ND2 N 0.399086 0.601729 0.592784 0.2969 Uiso
N N 0.36224 0.616803 0.514044 0.1345 Uiso
CA C 0.369408 0.62844 0.488019 0.1334 Uiso
C C 0.378027 0.643579 0.505546 0.1484 Uiso
O O 0.38354 0.655458 0.48786 0.1629 Uiso
CB C 0.35623 0.63431 0.460907 0.1384 Uiso
CG C 0.34169 0.644445 0.476846 0.1254 Uiso
OD1 O 0.341525 0.648366 0.508961 0.1456 Uiso
OD2 O 0.329913 0.648404 0.456353 0.1411 Uiso
N N 0.379059 0.643031 0.540573 0.1682 Uiso
CA C 0.387131 0.656591 0.560351 0.1873 Uiso
C C 0.377913 0.673588 0.561066 0.2126 Uiso
O O 0.384877 0.685951 0.575098 0.2449 Uiso
N N 0.362431 0.674581 0.546901 0.1858 Uiso
CA C 0.353289 0.690751 0.546954 0.2021 Uiso
C C 0.334204 0.68935 0.553705 0.2080 Uiso
O O 0.324235 0.699994 0.541182 0.2351 Uiso
CB C 0.356307 0.700287 0.51235 0.2028 Uiso
CG C 0.348617 0.691706 0.480526 0.2124 Uiso
CD C 0.347776 0.704158 0.450528 0.2328 Uiso
NE N 0.336216 0.698556 0.422835 0.2449 Uiso
CZ C 0.336483 0.704514 0.389845 0.2663 Uiso
NH1 N 0.347827 0.716419 0.380897 0.2798 Uiso
NH2 N 0.325482 0.698606 0.365885 0.2381 Uiso
N N 0.329009 0.676389 0.573324 0.2020 Uiso
CA C 0.311108 0.674148 0.582008 0.1992 Uiso
C C 0.310943 0.672366 0.622278 0.2311 Uiso
O O 0.311566 0.658284 0.636469 0.2404 Uiso
CB C 0.303673 0.657928 0.564508 0.1899 Uiso
OG1 O 0.307912 0.657788 0.527521 0.1665 Uiso
CG2 C 0.284396 0.657418 0.568585 0.1690 Uiso
N N 0.311579 0.686753 0.641182 0.2617 Uiso
CA C 0.311617 0.687313 0.679917 0.2875 Uiso
C C 0.298338 0.675867 0.696676 0.3092 Uiso
O O 0.283569 0.67546 0.685265 0.3247 Uiso
CB C 0.30776 0.705889 0.687383 0.3026 Uiso
CG C 0.317016 0.714649 0.657783 0.3033 Uiso
CD C 0.312012 0.704056 0.626223 0.2717 Uiso
N N 0.303902 0.666267 0.723178 0.3307 Uiso
CA C 0.292481 0.654783 0.741712 0.3540 Uiso
C C 0.285147 0.640625 0.718916 0.3620 Uiso
O O 0.270468 0.635659 0.723761 0.3998 Uiso
N N 0.294951 0.634666 0.69326 0.3451 Uiso
CA C 0.289171 0.620979 0.670465 0.3369 Uiso
C C 0.297599 0.604479 0.682538 0.3341 Uiso
O O 0.310357 0.604593 0.701733 0.3298 Uiso
CB C 0.293627 0.624608 0.631704 0.3383 Uiso
OG O 0.311363 0.622889 0.625217 0.3403 Uiso
N N 0.289973 0.590321 0.672212 0.3168 Uiso
CA C 0.29667 0.573731 0.681426 0.3142 Uiso
C C 0.306143 0.567378 0.649072 0.2894 Uiso
O O 0.305251 0.57503 0.620319 0.2923 Uiso
CB C 0.282168 0.561572 0.691089 0.3434 Uiso
CG C 0.272377 0.566818 0.724237 0.4111 Uiso
CD C 0.277521 0.556135 0.756379 0.4896 Uiso
NE N 0.26857 0.539724 0.757332 0.5484 Uiso
CZ C 0.272568 0.526775 0.778646 0.5798 Uiso
NH1 N 0.285542 0.527985 0.801124 0.5775 Uiso
NH2 N 0.263516 0.512503 0.777534 0.5959 Uiso
N N 0.315615 0.553691 0.654049 0.2522 Uiso
CA C 0.325368 0.545848 0.625747 0.2289 Uiso
C C 0.322121 0.526877 0.630459 0.2151 Uiso
O O 0.333809 0.516934 0.636972 0.2059 Uiso
CB C 0.344288 0.550024 0.629797 0.2168 Uiso
CG C 0.35511 0.542308 0.600727 0.2053 Uiso
OD1 O 0.348617 0.534491 0.575998 0.2135 Uiso
ND2 N 0.371776 0.544231 0.603983 0.2076 Uiso
N N 0.30599 0.522026 0.62715 0.2139 Uiso
CA C 0.300795 0.504367 0.632074 0.2149 Uiso
C C 0.309287 0.491444 0.607928 0.2073 Uiso
O O 0.310968 0.476624 0.617804 0.2295 Uiso
CB C 0.281404 0.502827 0.630751 0.2361 Uiso
CG C 0.272772 0.512312 0.661224 0.2600 Uiso
CD1 C 0.25347 0.511968 0.657306 0.2660 Uiso
CD2 C 0.278285 0.504189 0.696146 0.2847 Uiso
N N 0.314902 0.496766 0.576713 0.1904 Uiso
CA C 0.323573 0.484874 0.553308 0.1871 Uiso
C C 0.342734 0.485002 0.559292 0.1983 Uiso
O O 0.352016 0.47516 0.54293 0.2025 Uiso
CB C 0.319384 0.488427 0.514494 0.1777 Uiso
SG S 0.297599 0.482455 0.504222 0.1852 Uiso
N N 0.348642 0.496295 0.582379 0.2138 Uiso
CA C 0.366709 0.49753 0.590798 0.2447 Uiso
C C 0.378053 0.499936 0.559027 0.2314 Uiso
O O 0.390339 0.490489 0.553547 0.2192 Uiso
CB C 0.372578 0.481946 0.611503 0.3143 Uiso
CG C 0.373839 0.485562 0.650396 0.3945 Uiso
OD1 O 0.38447 0.4959 0.661728 0.4514 Uiso
ND2 N 0.362647 0.47777 0.671179 0.4258 Uiso
N N 0.374081 0.512872 0.538164 0.2106 Uiso
CA C 0.384024 0.516552 0.506658 0.2206 Uiso
C C 0.383235 0.535293 0.497365 0.2016 Uiso
O O 0.371343 0.544333 0.50777 0.1809 Uiso
CB C 0.37706 0.507448 0.472715 0.2246 Uiso
CG1 C 0.357784 0.509918 0.469829 0.2457 Uiso
CG2 C 0.38298 0.48914 0.470571 0.2532 Uiso
CD1 C 0.350603 0.50615 0.433425 0.2764 Uiso
N N 0.396769 0.541735 0.48042 0.1902 Uiso
CA C 0.396196 0.5597 0.4702 0.1778 Uiso
C C 0.383757 0.5597 0.4388 0.1539 Uiso
O O 0.382917 0.547325 0.418519 0.1439 Uiso
CB C 0.414492 0.563367 0.458498 0.1872 Uiso
CG C 0.421405 0.546153 0.447749 0.2220 Uiso
CD C 0.413843 0.534389 0.475098 0.2067 Uiso
N N 0.373609 0.573043 0.43557 0.1383 Uiso
CA C 0.36131 0.573858 0.406764 0.1279 Uiso
C C 0.369853 0.572687 0.370571 0.1375 Uiso
O O 0.362303 0.566181 0.345075 0.1465 Uiso
CB C 0.350705 0.590053 0.40965 0.1203 Uiso
SG S 0.338622 0.59153 0.450661 0.1294 Uiso
N N 0.385705 0.578518 0.368321 0.1349 Uiso
CA C 0.394974 0.577818 0.334934 0.1598 Uiso
C C 0.396489 0.559548 0.321061 0.1597 Uiso
O O 0.39682 0.556772 0.288919 0.1726 Uiso
CB C 0.412608 0.585712 0.339038 0.1573 Uiso
OG O 0.421876 0.57722 0.365779 0.1924 Uiso
N N 0.396845 0.547083 0.344969 0.1621 Uiso
CA C 0.397966 0.529093 0.334352 0.1835 Uiso
C C 0.382573 0.523987 0.311688 0.1852 Uiso
O O 0.383617 0.512376 0.289422 0.2024 Uiso
CB C 0.399137 0.51771 0.366917 0.1824 Uiso
N N 0.368402 0.532899 0.316957 0.1614 Uiso
CA C 0.352729 0.529589 0.297709 0.1662 Uiso
C C 0.3525 0.53635 0.259795 0.1643 Uiso
O O 0.340175 0.533549 0.240627 0.1825 Uiso
CB C 0.337743 0.537152 0.318228 0.1605 Uiso
CG C 0.33549 0.529857 0.355374 0.1887 Uiso
CD1 C 0.321943 0.53994 0.37531 0.1923 Uiso
CD2 C 0.330957 0.511 0.352964 0.1812 Uiso
N N 0.366085 0.544842 0.248464 0.1625 Uiso
CA C 0.366632 0.551985 0.212959 0.1587 Uiso
C C 0.377887 0.541914 0.188204 0.1755 Uiso
O O 0.379021 0.545873 0.15646 0.1887 Uiso
CB C 0.373036 0.570459 0.214124 0.1673 Uiso
CG C 0.36308 0.582376 0.23872 0.1866 Uiso
CD1 C 0.371076 0.59987 0.237741 0.2109 Uiso
CD2 C 0.344619 0.583522 0.227098 0.1730 Uiso
N N 0.38615 0.528902 0.202819 0.1869 Uiso
CA C 0.397622 0.51771 0.183068 0.1891 Uiso
C C 0.389257 0.50853 0.15217 0.1887 Uiso
O O 0.374055 0.505271 0.152673 0.1891 Uiso
CB C 0.405185 0.504393 0.208167 0.1892 Uiso
OG O 0.414836 0.492272 0.189025 0.2401 Uiso
N N 0.399328 0.504265 0.125377 0.1968 Uiso
CA C 0.392886 0.494844 0.0951147 0.2025 Uiso
C C 0.388442 0.476802 0.10687 0.2123 Uiso
O O 0.378588 0.467966 0.0896871 0.2394 Uiso
CB C 0.406242 0.494665 0.0655674 0.2021 Uiso
CB C 0.405923 0.494729 0.0650644 0.2092 Uiso
OG O 0.422386 0.489904 0.0783024 0.1836 Uiso
OG O 0.407859 0.511701 0.0521441 0.2137 Uiso
N N 0.395712 0.471519 0.136603 0.2182 Uiso
CA C 0.392567 0.454776 0.152197 0.2238 Uiso
C C 0.377505 0.457857 0.176978 0.2110 Uiso
O O 0.378791 0.467839 0.202078 0.2125 Uiso
CB C 0.408113 0.449136 0.17359 0.2494 Uiso
CG C 0.406649 0.430853 0.187092 0.3024 Uiso
OD1 O 0.392427 0.4252 0.195379 0.2984 Uiso
OD2 O 0.419763 0.42194 0.18876 0.3499 Uiso
N N 0.363284 0.449301 0.170227 0.1959 Uiso
CA C 0.347993 0.452 0.191673 0.1748 Uiso
C C 0.347216 0.44254 0.226542 0.1692 Uiso
O O 0.334828 0.444247 0.246054 0.1596 Uiso
CB C 0.331543 0.448206 0.170836 0.1782 Uiso
CG1 C 0.33027 0.429197 0.161781 0.1748 Uiso
CG2 C 0.330792 0.459423 0.137529 0.1873 Uiso
CD1 C 0.313705 0.424308 0.144466 0.1983 Uiso
N N 0.360241 0.432597 0.234776 0.1671 Uiso
CA C 0.360343 0.422819 0.267473 0.1714 Uiso
C C 0.354932 0.432686 0.300701 0.1665 Uiso
O O 0.343867 0.426867 0.320478 0.1693 Uiso
CB C 0.377849 0.414505 0.273245 0.1869 Uiso
OG1 O 0.381822 0.40409 0.24346 0.2149 Uiso
CG2 C 0.377544 0.40339 0.305652 0.2106 Uiso
N N 0.362456 0.447544 0.306896 0.1484 Uiso
CA C 0.358255 0.457373 0.338588 0.1595 Uiso
C C 0.339717 0.462683 0.337873 0.1536 Uiso
O O 0.331021 0.461664 0.364958 0.1749 Uiso
CB C 0.369815 0.473008 0.341871 0.1595 Uiso
N N 0.333771 0.468641 0.307293 0.1382 Uiso
CA C 0.315997 0.47395 0.303693 0.1431 Uiso
C C 0.303774 0.459143 0.311159 0.1455 Uiso
O O 0.291068 0.46104 0.330089 0.1496 Uiso
CB C 0.312725 0.481411 0.266785 0.1397 Uiso
OG O 0.318213 0.498587 0.26517 0.1551 Uiso
N N 0.30781 0.444336 0.296623 0.1481 Uiso
CA C 0.297179 0.429427 0.301998 0.1591 Uiso
C C 0.297128 0.423735 0.34068 0.1667 Uiso
O O 0.283556 0.420476 0.355559 0.1648 Uiso
CB C 0.302718 0.414708 0.277587 0.1790 Uiso
CG1 C 0.293258 0.398131 0.287622 0.1904 Uiso
CG2 C 0.299076 0.419534 0.239382 0.1855 Uiso
N N 0.312088 0.422691 0.357174 0.1559 Uiso
CA C 0.31312 0.417331 0.394188 0.1823 Uiso
C C 0.303265 0.429134 0.418413 0.1771 Uiso
O O 0.294786 0.423366 0.443036 0.1830 Uiso
CB C 0.331581 0.41616 0.406923 0.2205 Uiso
CG C 0.341334 0.401836 0.389104 0.2843 Uiso
OD1 O 0.333746 0.390377 0.373245 0.2902 Uiso
ND2 N 0.358318 0.402473 0.391566 0.3141 Uiso
N N 0.304436 0.445673 0.411582 0.1577 Uiso
CA C 0.295333 0.457972 0.433028 0.1473 Uiso
C C 0.27621 0.456877 0.425615 0.1421 Uiso
O O 0.265871 0.457641 0.450025 0.1432 Uiso
CB C 0.302094 0.475822 0.42572 0.1546 Uiso
SG S 0.293729 0.492093 0.455082 0.1771 Uiso
N N 0.271537 0.454636 0.392017 0.1401 Uiso
CA C 0.253636 0.453197 0.381744 0.1382 Uiso
C C 0.24536 0.43797 0.400648 0.1473 Uiso
O O 0.230553 0.438657 0.411053 0.1532 Uiso
CB C 0.252057 0.451326 0.341871 0.1301 Uiso
N N 0.254934 0.424206 0.405202 0.1525 Uiso
CA C 0.248237 0.40931 0.423523 0.1627 Uiso
C C 0.243527 0.413868 0.46149 0.1691 Uiso
O O 0.23082 0.407833 0.475019 0.1950 Uiso
CB C 0.261339 0.394846 0.423258 0.1750 Uiso
CG C 0.263287 0.386532 0.387489 0.1779 Uiso
CD C 0.276706 0.372693 0.388125 0.2066 Uiso
CE C 0.278514 0.365015 0.351217 0.2325 Uiso
NZ N 0.293436 0.353493 0.34796 0.2398 Uiso
N N 0.253789 0.424436 0.478831 0.1747 Uiso
CA C 0.249905 0.429401 0.515315 0.2006 Uiso
C C 0.234181 0.440771 0.51603 0.1863 Uiso
O O 0.223168 0.439065 0.538773 0.1844 Uiso
CB C 0.264904 0.438785 0.532578 0.2380 Uiso
CG C 0.280793 0.427886 0.53774 0.3271 Uiso
CD C 0.293627 0.436506 0.562257 0.3739 Uiso
CE C 0.30986 0.425734 0.566493 0.4154 Uiso
NZ N 0.319919 0.42385 0.533028 0.4397 Uiso
N N 0.233239 0.452471 0.490772 0.1603 Uiso
CA C 0.218877 0.464261 0.488707 0.1578 Uiso
C C 0.202071 0.454776 0.483571 0.1465 Uiso
O O 0.19023 0.45722 0.503639 0.1474 Uiso
CB C 0.221488 0.477579 0.458154 0.1617 Uiso
CG1 C 0.237148 0.488643 0.46562 0.1487 Uiso
CG2 C 0.2057 0.488681 0.453229 0.1367 Uiso
CD1 C 0.241859 0.500076 0.435199 0.1435 Uiso
N N 0.201371 0.443406 0.45773 0.1558 Uiso
CA C 0.185787 0.434125 0.449972 0.1662 Uiso
C C 0.180338 0.421876 0.479626 0.2080 Uiso
O O 0.16567 0.416173 0.480632 0.2050 Uiso
CB C 0.187137 0.424843 0.414018 0.1601 Uiso
CG1 C 0.198748 0.409374 0.416825 0.1570 Uiso
CG2 C 0.169719 0.420081 0.400542 0.1759 Uiso
N N 0.192077 0.418006 0.503692 0.2211 Uiso
CA C 0.188435 0.406814 0.533637 0.2660 Uiso
C C 0.18291 0.417331 0.565726 0.2962 Uiso
O O 0.177358 0.410367 0.592493 0.3195 Uiso
CB C 0.204376 0.396782 0.5433 0.2363 Uiso
OG O 0.209227 0.385883 0.515368 0.2662 Uiso
N N 0.184285 0.434125 0.562072 0.3359 Uiso
CA C 0.18035 0.446615 0.589554 0.3658 Uiso
C C 0.161965 0.447213 0.602607 0.3724 Uiso
O O 0.158184 0.455807 0.628791 0.3886 Uiso
CB C 0.185532 0.464185 0.576078 0.3979 Uiso
CG C 0.186831 0.477172 0.605069 0.4637 Uiso
OD1 O 0.195743 0.473759 0.631677 0.4884 Uiso
OD2 O 0.179243 0.491049 0.60078 0.5027 Uiso
N N 0.150392 0.438594 0.584259 0.3673 Uiso
CA C 0.132707 0.438772 0.595935 0.3511 Uiso
C C 0.119708 0.445736 0.569882 0.3402 Uiso
O O 0.105117 0.439689 0.569565 0.3432 Uiso
N N 0.124572 0.458303 0.548304 0.3047 Uiso
CA C 0.112731 0.465484 0.522358 0.2714 Uiso
C C 0.115341 0.458366 0.485265 0.2159 Uiso
O O 0.106976 0.463739 0.46006 0.1964 Uiso
CB C 0.114017 0.484785 0.521855 0.3312 Uiso
CG C 0.111037 0.492361 0.557915 0.4025 Uiso
OD1 O 0.0971723 0.49068 0.572848 0.4319 Uiso
ND2 N 0.12424 0.500166 0.573033 0.4288 Uiso
N N 0.126812 0.446118 0.482114 0.1817 Uiso
CA C 0.13011 0.438403 0.44804 0.1695 Uiso
C C 0.136438 0.451351 0.421246 0.1593 Uiso
O O 0.145299 0.463446 0.43038 0.1698 Uiso
N N 0.131167 0.449314 0.388125 0.1453 Uiso
CA C 0.136909 0.460887 0.360457 0.1324 Uiso
C C 0.128315 0.478126 0.360722 0.1363 Uiso
O O 0.13272 0.489292 0.339806 0.1215 Uiso
CB C 0.135737 0.452522 0.324159 0.1203 Uiso
CG C 0.149832 0.439485 0.31844 0.1264 Uiso
SD S 0.152162 0.433259 0.273086 0.1517 Uiso
CE C 0.163646 0.451491 0.256009 0.1587 Uiso
N N 0.116028 0.480342 0.38455 0.1417 Uiso
CA C 0.107205 0.496651 0.387674 0.1477 Uiso
C C 0.119759 0.510351 0.39935 0.1435 Uiso
O O 0.116016 0.525502 0.39612 0.1529 Uiso
CB C 0.0921049 0.495506 0.413091 0.1458 Uiso
CG C 0.0779342 0.484327 0.398688 0.1560 Uiso
OD1 O 0.0700658 0.488236 0.371312 0.1634 Uiso
ND2 N 0.0748658 0.470118 0.416427 0.1693 Uiso
N N 0.134655 0.504864 0.412191 0.1455 Uiso
CA C 0.148164 0.516526 0.423073 0.1484 Uiso
C C 0.154135 0.527106 0.391169 0.1567 Uiso
O O 0.161151 0.54101 0.395432 0.1896 Uiso
CB C 0.162946 0.506633 0.438561 0.1583 Uiso
N N 0.15164 0.520346 0.359292 0.1340 Uiso
CA C 0.156338 0.529207 0.326727 0.1364 Uiso
C C 0.140423 0.537407 0.311715 0.1450 Uiso
O O 0.129155 0.528711 0.297815 0.1336 Uiso
CB C 0.164232 0.517035 0.299801 0.1350 Uiso
CG C 0.18198 0.512286 0.309676 0.1339 Uiso
CD1 C 0.196393 0.521581 0.30319 0.1358 Uiso
CD2 C 0.187378 0.497275 0.328024 0.1217 Uiso
NE1 N 0.210334 0.513203 0.316163 0.1346 Uiso
CE2 C 0.205229 0.498243 0.331466 0.1346 Uiso
CE3 C 0.178873 0.483079 0.341924 0.1283 Uiso
CZ2 C 0.214841 0.485562 0.348411 0.1192 Uiso
CZ3 C 0.188448 0.470462 0.358816 0.1279 Uiso
CH2 C 0.206247 0.471837 0.361754 0.1158 Uiso
N N 0.139761 0.554264 0.314071 0.1534 Uiso
CA C 0.125094 0.563864 0.30176 0.1584 Uiso
C C 0.12065 0.56063 0.262787 0.1517 Uiso
O O 0.10569 0.55816 0.25405 0.1600 Uiso
CB C 0.127767 0.583293 0.307611 0.1743 Uiso
CB C 0.127564 0.583127 0.308299 0.1758 Uiso
CG1 C 0.112642 0.593389 0.293155 0.1899 Uiso
CG1 C 0.141556 0.590143 0.284471 0.1706 Uiso
CG2 C 0.130275 0.587036 0.346901 0.1736 Uiso
CG2 C 0.110745 0.592562 0.303401 0.1910 Uiso
N N 0.133408 0.559726 0.239727 0.1550 Uiso
CA C 0.129868 0.556759 0.20221 0.1539 Uiso
C C 0.122636 0.538947 0.196385 0.1472 Uiso
O O 0.112362 0.536286 0.172689 0.1532 Uiso
CB C 0.145745 0.559484 0.179785 0.1617 Uiso
N N 0.128226 0.526674 0.217593 0.1406 Uiso
CA C 0.121529 0.509498 0.213992 0.1239 Uiso
C C 0.102736 0.509855 0.224159 0.1335 Uiso
O O 0.0918757 0.502979 0.205281 0.1246 Uiso
CB C 0.13081 0.496817 0.237979 0.1083 Uiso
CG C 0.122827 0.479552 0.235755 0.1089 Uiso
CD1 C 0.12517 0.467737 0.20957 0.1294 Uiso
CD2 C 0.110401 0.472461 0.259425 0.1194 Uiso
NE1 N 0.114921 0.453821 0.215369 0.1210 Uiso
CE2 C 0.105805 0.456317 0.245816 0.1115 Uiso
CE3 C 0.102736 0.478114 0.290958 0.1160 Uiso
CZ2 C 0.0938747 0.445825 0.262602 0.1244 Uiso
CZ3 C 0.0909336 0.467648 0.307638 0.1170 Uiso
CH2 C 0.0866302 0.451695 0.29334 0.1163 Uiso
N N 0.0989547 0.517723 0.254235 0.1313 Uiso
CA C 0.0815119 0.518703 0.266759 0.1643 Uiso
C C 0.069773 0.527781 0.240203 0.1644 Uiso
O O 0.0557551 0.521746 0.232075 0.1672 Uiso
CB C 0.0810408 0.528049 0.302131 0.1918 Uiso
CG C 0.0647438 0.525349 0.322173 0.2891 Uiso
CD C 0.0631905 0.537865 0.352567 0.3642 Uiso
NE N 0.0797803 0.541379 0.368347 0.4359 Uiso
CZ C 0.0859681 0.556938 0.373404 0.4622 Uiso
NH1 N 0.0767629 0.570446 0.363952 0.4671 Uiso
NH2 N 0.101412 0.558975 0.387118 0.4768 Uiso
N N 0.0758589 0.541837 0.225482 0.1515 Uiso
CA C 0.0655205 0.551679 0.201098 0.1555 Uiso
C C 0.0654568 0.546281 0.162867 0.1505 Uiso
O O 0.0530813 0.549642 0.144201 0.1629 Uiso
CB C 0.0704732 0.570433 0.203269 0.1510 Uiso
CG C 0.0657624 0.578213 0.238403 0.1627 Uiso
OD1 O 0.0530813 0.573209 0.254553 0.1863 Uiso
ND2 N 0.0758334 0.590334 0.250635 0.1570 Uiso
N N 0.0785581 0.537139 0.151429 0.1422 Uiso
CA C 0.0799968 0.53253 0.114336 0.1522 Uiso
C C 0.0822758 0.51384 0.105043 0.1602 Uiso
O O 0.0803151 0.509167 0.074278 0.1820 Uiso
CB C 0.0943839 0.543034 0.0983183 0.1487 Uiso
CG C 0.0925505 0.561852 0.107452 0.1620 Uiso
CD C 0.107014 0.572254 0.093685 0.1624 Uiso
NE N 0.10653 0.574075 0.0552683 0.1758 Uiso
CZ C 0.117442 0.5837 0.0372911 0.1749 Uiso
NH1 N 0.129435 0.592192 0.0545799 0.1762 Uiso
NH2 N 0.11641 0.584744 0.0022898 0.1843 Uiso
N N 0.0862482 0.503234 0.131122 0.1397 Uiso
CA C 0.0888837 0.485142 0.124503 0.1360 Uiso
C C 0.0758843 0.473912 0.14248 0.1411 Uiso
O O 0.0699385 0.461486 0.126992 0.1624 Uiso
CB C 0.106454 0.479794 0.137185 0.1237 Uiso
SG S 0.123273 0.491941 0.116507 0.1397 Uiso
N N 0.0720902 0.477986 0.175655 0.1408 Uiso
CA C 0.0600203 0.468399 0.197021 0.1515 Uiso
C C 0.0433796 0.465598 0.177402 0.1720 Uiso
O O 0.0355366 0.477783 0.164508 0.1712 Uiso
CB C 0.0564808 0.477935 0.231519 0.1468 Uiso
CG C 0.0466517 0.467699 0.258842 0.1379 Uiso
CD C 0.0444872 0.477834 0.29297 0.1425 Uiso
CE C 0.0373064 0.466808 0.322861 0.1535 Uiso
NZ N 0.0367334 0.47614 0.357412 0.1649 Uiso
N N 0.0383759 0.449428 0.174913 0.2106 Uiso
CA C 0.0225118 0.444743 0.15773 0.2305 Uiso
C C 0.0223081 0.445367 0.117672 0.2501 Uiso
O O 0.00871032 0.444043 0.101601 0.2807 Uiso
N N 0.0369754 0.448321 0.101284 0.2290 Uiso
CA C 0.0379685 0.448843 0.0628139 0.2109 Uiso
C C 0.0452512 0.431897 0.0503967 0.2156 Uiso
O O 0.0500639 0.421138 0.0718952 0.1953 Uiso
CB C 0.0496819 0.463434 0.0497348 0.2140 Uiso
OG1 O 0.0670483 0.459627 0.058366 0.1949 Uiso
CG2 C 0.0443217 0.480495 0.0665735 0.2004 Uiso
N N 0.0460787 0.429376 0.0157661 0.2247 Uiso
CA C 0.0530177 0.413639 0.00178676 0.2467 Uiso
C C 0.0722812 0.415345 0.00244866 0.2371 Uiso
O O 0.0800986 0.419572 -0.0244245 0.2465 Uiso
CB C 0.0468045 0.410812 -0.0361798 0.3074 Uiso
CG C 0.0542272 0.39477 -0.0529127 0.3655 Uiso
OD1 O 0.0575121 0.38214 -0.0336911 0.4047 Uiso
OD2 O 0.0568373 0.394872 -0.0855576 0.4212 Uiso
N N 0.0799713 0.41192 0.0329755 0.2135 Uiso
CA C 0.0983691 0.413741 0.0367086 0.2119 Uiso
C C 0.108988 0.400703 0.0165604 0.2223 Uiso
O O 0.124075 0.403606 0.00980899 0.2102 Uiso
CB C 0.104009 0.414785 0.0760784 0.2053 Uiso
CG1 C 0.0974396 0.431222 0.0928112 0.2012 Uiso
CG2 C 0.0976943 0.399608 0.0963855 0.2161 Uiso
N N 0.101208 0.386494 0.00631416 0.2329 Uiso
CA C 0.110197 0.373368 -0.0135958 0.2439 Uiso
C C 0.116474 0.380739 -0.0491001 0.2342 Uiso
O O 0.129384 0.375061 -0.0637149 0.2346 Uiso
CB C 0.0983181 0.358013 -0.019394 0.2984 Uiso
CG C 0.106912 0.341754 -0.0333998 0.3892 Uiso
CD C 0.109586 0.341716 -0.0736963 0.4542 Uiso
OE1 O 0.0984073 0.347089 -0.093871 0.4904 Uiso
NE2 N 0.124355 0.335312 -0.0855046 0.4676 Uiso
N N 0.1076 0.39365 -0.0625234 0.2253 Uiso
CA C 0.112349 0.401862 -0.0957773 0.2102 Uiso
C C 0.130365 0.409144 -0.0946918 0.2190 Uiso
O O 0.138691 0.410685 -0.122094 0.2133 Uiso
CB C 0.0998332 0.415803 -0.10462 0.2213 Uiso
N N 0.136476 0.413652 -0.0631853 0.2050 Uiso
CA C 0.153639 0.420731 -0.0594258 0.2124 Uiso
C C 0.167682 0.407871 -0.0664948 0.2172 Uiso
O O 0.182222 0.412557 -0.0735375 0.2196 Uiso
CB C 0.155943 0.428905 -0.0229153 0.1972 Uiso
CG C 0.145949 0.444743 -0.0205855 0.2026 Uiso
CD1 C 0.130428 0.44678 -0.00483224 0.1973 Uiso
CD2 C 0.149768 0.460531 -0.0376625 0.1997 Uiso
NE1 N 0.12424 0.462823 -0.0113718 0.1918 Uiso
CE2 C 0.135852 0.471557 -0.0314936 0.2005 Uiso
CE3 C 0.16357 0.466438 -0.0578372 0.2063 Uiso
CZ2 C 0.135292 0.488147 -0.044864 0.1969 Uiso
CZ3 C 0.163009 0.482952 -0.0712605 0.2029 Uiso
CH2 C 0.148902 0.493583 -0.064615 0.2109 Uiso
N N 0.163455 0.391562 -0.0647474 0.2180 Uiso
CA C 0.176238 0.378651 -0.0715518 0.2313 Uiso
C C 0.172304 0.36858 -0.10507 0.2434 Uiso
O O 0.181904 0.357083 -0.114893 0.2406 Uiso
CB C 0.178428 0.366696 -0.0396482 0.2376 Uiso
CG1 C 0.16152 0.358255 -0.0303551 0.2343 Uiso
CG2 C 0.185418 0.376716 -0.00795641 0.2389 Uiso
CD1 C 0.163239 0.344173 -0.00369377 0.3045 Uiso
N N 0.15877 0.373482 -0.123604 0.2549 Uiso
CA C 0.154212 0.364455 -0.155851 0.2955 Uiso
C C 0.168242 0.365792 -0.183439 0.2905 Uiso
O O 0.176314 0.379046 -0.187252 0.2954 Uiso
CB C 0.136934 0.370414 -0.170625 0.3493 Uiso
CG C 0.135534 0.389015 -0.182724 0.4296 Uiso
CD C 0.142689 0.391982 -0.219685 0.4942 Uiso
NE N 0.139252 0.408992 -0.233876 0.5426 Uiso
CZ C 0.144612 0.423583 -0.219632 0.5560 Uiso
NH1 N 0.147082 0.424919 -0.185001 0.5660 Uiso
NH2 N 0.147184 0.437015 -0.239966 0.5820 Uiso
N N 0.171858 0.35143 -0.20041 0.2965 Uiso
CA C 0.184794 0.350819 -0.227707 0.2909 Uiso
C C 0.202733 0.348005 -0.214602 0.2890 Uiso
O O 0.214332 0.344962 -0.235835 0.3062 Uiso
N N 0.205343 0.348884 -0.180024 0.2765 Uiso
CA C 0.222442 0.346656 -0.165833 0.2713 Uiso
C C 0.227357 0.328156 -0.160749 0.2847 Uiso
O O 0.216675 0.317512 -0.152674 0.2960 Uiso
CB C 0.224365 0.356001 -0.130593 0.2443 Uiso
SG S 0.217006 0.377913 -0.130514 0.2386 Uiso
N N 0.243667 0.324426 -0.165277 0.3104 Uiso
CA C 0.250173 0.307288 -0.160061 0.3480 Uiso
C C 0.257226 0.308001 -0.122412 0.3656 Uiso
O O 0.270582 0.315742 -0.116482 0.3831 Uiso
CB C 0.264191 0.303813 -0.187305 0.3687 Uiso
CG C 0.271817 0.28595 -0.185716 0.4172 Uiso
CD C 0.282155 0.281965 -0.218811 0.4414 Uiso
NE N 0.292519 0.296454 -0.229958 0.4984 Uiso
CZ C 0.293207 0.302361 -0.263 0.5217 Uiso
NH1 N 0.284167 0.294964 -0.288549 0.5342 Uiso
NH2 N 0.302769 0.315883 -0.270413 0.5447 Uiso
N N 0.247957 0.300757 -0.0969422 0.3859 Uiso
CA C 0.253114 0.301406 -0.0594787 0.4166 Uiso
C C 0.261708 0.285759 -0.0428783 0.4353 Uiso
O O 0.277445 0.286166 -0.0387745 0.4463 Uiso
CB C 0.238141 0.306856 -0.0359415 0.4143 Uiso
CG C 0.232806 0.325521 -0.0322879 0.4250 Uiso
CD1 C 0.248212 0.336903 -0.0334528 0.4207 Uiso
CD2 C 0.220367 0.330282 -0.060776 0.4439 Uiso
OXT O 0.252745 0.273625 -0.0319437 0.4456 Uiso
N N 0.628262 0.457526 0.523524 0.1693 Uiso
CA C 0.632718 0.469074 0.493553 0.1810 Uiso
C C 0.651918 0.469252 0.487066 0.1810 Uiso
O O 0.661938 0.469571 0.512218 0.1730 Uiso
CB C 0.626607 0.487268 0.501681 0.1916 Uiso
CG C 0.632973 0.500484 0.476184 0.2130 Uiso
CD C 0.626187 0.518054 0.484763 0.2253 Uiso
CD C 0.62662 0.518169 0.486457 0.2173 Uiso
CE C 0.634475 0.531283 0.460934 0.2386 Uiso
CE C 0.635876 0.532034 0.465832 0.2295 Uiso
NZ N 0.626263 0.548305 0.463767 0.2372 Uiso
NZ N 0.633724 0.53099 0.426568 0.2186 Uiso
N N 0.656973 0.46859 0.453547 0.1769 Uiso
CA C 0.67495 0.469227 0.444228 0.1863 Uiso
C C 0.678121 0.487293 0.431096 0.1943 Uiso
O O 0.670762 0.492692 0.404726 0.2191 Uiso
CB C 0.679852 0.455922 0.415634 0.1782 Uiso
CG1 C 0.698619 0.458124 0.404885 0.2006 Uiso
CG2 C 0.677115 0.437957 0.43001 0.1883 Uiso
N N 0.687861 0.497097 0.451165 0.1785 Uiso
CA C 0.691426 0.514655 0.441342 0.1921 Uiso
C C 0.704731 0.516373 0.412642 0.2007 Uiso
O O 0.715464 0.505156 0.407665 0.2040 Uiso
CB C 0.697995 0.524611 0.473378 0.1835 Uiso
CG C 0.684258 0.531919 0.496386 0.1862 Uiso
CD1 C 0.676313 0.521886 0.52212 0.1754 Uiso
CD2 C 0.679521 0.549005 0.493023 0.1838 Uiso
CE1 C 0.663874 0.528787 0.544175 0.1918 Uiso
CE2 C 0.667057 0.556084 0.514945 0.1959 Uiso
CZ C 0.659214 0.54595 0.540654 0.2058 Uiso
N N 0.703496 0.530302 0.393129 0.2119 Uiso
CA C 0.717004 0.534491 0.368374 0.1969 Uiso
C C 0.730296 0.543849 0.389449 0.1854 Uiso
O O 0.72626 0.55061 0.417937 0.1743 Uiso
N N 0.745957 0.544486 0.37735 0.1852 Uiso
CA C 0.759504 0.552787 0.397154 0.1853 Uiso
C C 0.755353 0.571223 0.406844 0.1877 Uiso
O O 0.755417 0.575895 0.438059 0.1782 Uiso
CB C 0.776068 0.55187 0.376185 0.1883 Uiso
CG C 0.791168 0.559688 0.394691 0.1924 Uiso
CD C 0.807287 0.557256 0.373246 0.2280 Uiso
NE N 0.806485 0.564844 0.337847 0.2675 Uiso
CZ C 0.809018 0.581319 0.33054 0.2847 Uiso
NH1 N 0.81252 0.592485 0.356063 0.2699 Uiso
NH2 N 0.808407 0.586641 0.29718 0.2912 Uiso
N N 0.751508 0.581663 0.380182 0.1939 Uiso
CA C 0.747345 0.599641 0.386722 0.1977 Uiso
C C 0.73036 0.602098 0.405599 0.1828 Uiso
O O 0.728132 0.614104 0.425907 0.1891 Uiso
CB C 0.747752 0.609826 0.352091 0.2029 Uiso
SG S 0.768785 0.610412 0.332049 0.2204 Uiso
N N 0.718468 0.590372 0.399828 0.1833 Uiso
CA C 0.701853 0.591416 0.417037 0.1760 Uiso
C C 0.704209 0.589213 0.456831 0.1662 Uiso
O O 0.696353 0.598024 0.478011 0.1558 Uiso
CB C 0.690089 0.577487 0.403164 0.1938 Uiso
CG C 0.672111 0.578353 0.417937 0.2031 Uiso
CD C 0.661544 0.562794 0.408777 0.2181 Uiso
OE1 O 0.669005 0.54954 0.399166 0.2403 Uiso
OE2 O 0.64568 0.563545 0.412033 0.2296 Uiso
N N 0.715171 0.577271 0.466759 0.1602 Uiso
CA C 0.718799 0.57424 0.504064 0.1645 Uiso
C C 0.728565 0.589404 0.519843 0.1674 Uiso
O O 0.724809 0.595146 0.549285 0.1759 Uiso
CB C 0.729151 0.557854 0.508512 0.1612 Uiso
CG C 0.73325 0.55392 0.54714 0.1603 Uiso
CD1 C 0.716699 0.551259 0.568453 0.1643 Uiso
CD2 C 0.744378 0.538272 0.548729 0.1598 Uiso
N N 0.741233 0.595668 0.500384 0.1669 Uiso
CA C 0.751291 0.610336 0.51198 0.1716 Uiso
C C 0.739387 0.625206 0.520611 0.1643 Uiso
O O 0.740584 0.632909 0.548861 0.1726 Uiso
CB C 0.764074 0.61553 0.482856 0.1631 Uiso
N N 0.727546 0.628861 0.49665 0.1706 Uiso
CA C 0.715476 0.642726 0.502131 0.1785 Uiso
C C 0.704323 0.639581 0.534643 0.1791 Uiso
O O 0.701497 0.650989 0.556063 0.1858 Uiso
CB C 0.70445 0.645094 0.469248 0.1886 Uiso
N N 0.69811 0.623984 0.538588 0.1800 Uiso
CA C 0.687364 0.619643 0.568692 0.1717 Uiso
C C 0.697091 0.621489 0.603613 0.1815 Uiso
O O 0.690191 0.627918 0.629772 0.1779 Uiso
CB C 0.680514 0.601474 0.564747 0.1868 Uiso
N N 0.713083 0.615836 0.603984 0.1696 Uiso
CA C 0.723434 0.616842 0.635782 0.1681 Uiso
C C 0.72719 0.635099 0.645313 0.1781 Uiso
O O 0.726502 0.639836 0.676449 0.1923 Uiso
CB C 0.739871 0.607063 0.630698 0.1493 Uiso
CG C 0.73721 0.588055 0.63189 0.1667 Uiso
SD S 0.756754 0.576672 0.626224 0.1804 Uiso
CE C 0.752717 0.557943 0.652859 0.1774 Uiso
N N 0.730577 0.645412 0.618308 0.1916 Uiso
CA C 0.734434 0.663428 0.623259 0.2232 Uiso
C C 0.71913 0.672391 0.639091 0.2221 Uiso
O O 0.720773 0.681737 0.66517 0.2220 Uiso
CB C 0.739247 0.671526 0.587807 0.2449 Uiso
CG C 0.744276 0.690114 0.589819 0.3055 Uiso
CD C 0.755493 0.694507 0.558366 0.3447 Uiso
CE C 0.760726 0.713083 0.558075 0.3925 Uiso
NZ N 0.746619 0.723816 0.544996 0.4345 Uiso
N N 0.704132 0.668572 0.624609 0.2348 Uiso
CA C 0.688192 0.676084 0.636814 0.2449 Uiso
C C 0.68497 0.67122 0.675178 0.2385 Uiso
O O 0.677777 0.681176 0.695432 0.2315 Uiso
CB C 0.673359 0.670087 0.61378 0.2722 Uiso
CG C 0.660398 0.683926 0.606632 0.3560 Uiso
CD C 0.64242 0.67863 0.616587 0.4045 Uiso
NE N 0.638104 0.661365 0.605334 0.4486 Uiso
CZ C 0.624532 0.652924 0.617116 0.4653 Uiso
NH1 N 0.613951 0.660334 0.639859 0.4852 Uiso
NH2 N 0.621718 0.636984 0.606923 0.4870 Uiso
N N 0.690573 0.655916 0.685212 0.2263 Uiso
CA C 0.688485 0.649817 0.721352 0.2263 Uiso
C C 0.702528 0.655241 0.747034 0.2232 Uiso
O O 0.703368 0.648888 0.776952 0.2273 Uiso
CB C 0.685785 0.630618 0.721935 0.2297 Uiso
CG C 0.667948 0.625461 0.713251 0.2690 Uiso
ND1 N 0.662868 0.62117 0.679494 0.2741 Uiso
CD2 C 0.653803 0.624315 0.733769 0.2757 Uiso
CE1 C 0.646354 0.617593 0.679547 0.2829 Uiso
NE2 N 0.640612 0.619426 0.712297 0.2912 Uiso
N N 0.713503 0.666853 0.734961 0.2305 Uiso
CA C 0.726986 0.673881 0.757095 0.2335 Uiso
C C 0.743067 0.663721 0.763873 0.2530 Uiso
O O 0.752272 0.667158 0.789501 0.2501 Uiso
N N 0.746606 0.651269 0.741342 0.2480 Uiso
CA C 0.761885 0.641032 0.745816 0.2401 Uiso
C C 0.778169 0.648875 0.731016 0.2441 Uiso
O O 0.792085 0.644075 0.742162 0.2543 Uiso
CB C 0.7593 0.623233 0.730301 0.2276 Uiso
CG C 0.748847 0.610858 0.752567 0.2211 Uiso
CD1 C 0.749496 0.593402 0.734696 0.2394 Uiso
CD2 C 0.756091 0.609533 0.789846 0.2191 Uiso
N N 0.77687 0.660932 0.706446 0.2381 Uiso
CA C 0.792378 0.66847 0.691805 0.2515 Uiso
C C 0.801876 0.67779 0.72114 0.2462 Uiso
O O 0.795255 0.689694 0.737423 0.2498 Uiso
CB C 0.788584 0.680514 0.660828 0.2764 Uiso
CG C 0.80483 0.68702 0.64203 0.3122 Uiso
OD1 O 0.818847 0.679368 0.645631 0.3095 Uiso
OD2 O 0.803467 0.700083 0.623047 0.3510 Uiso
N N 0.817103 0.671538 0.728845 0.2354 Uiso
CA C 0.828015 0.678655 0.756115 0.2371 Uiso
C C 0.821661 0.675472 0.793817 0.2204 Uiso
O O 0.827862 0.68329 0.818996 0.2197 Uiso
CB C 0.831108 0.697639 0.74939 0.2951 Uiso
CG C 0.837882 0.701038 0.712324 0.3612 Uiso
OD1 O 0.851912 0.695487 0.702925 0.4034 Uiso
ND2 N 0.827747 0.709658 0.69064 0.4022 Uiso
N N 0.80968 0.663644 0.798212 0.1991 Uiso
CA C 0.803493 0.659596 0.833505 0.1823 Uiso
C C 0.818364 0.651396 0.853547 0.1953 Uiso
O O 0.825863 0.639008 0.84113 0.1806 Uiso
CB C 0.788342 0.647437 0.832181 0.1697 Uiso
CG C 0.780359 0.645349 0.868109 0.1859 Uiso
CD1 C 0.768709 0.657266 0.880817 0.1901 Uiso
CD2 C 0.785044 0.631929 0.890243 0.1835 Uiso
CE1 C 0.762037 0.655929 0.91468 0.2180 Uiso
CE2 C 0.778538 0.630465 0.924105 0.1977 Uiso
CZ C 0.767041 0.642471 0.936178 0.2261 Uiso
OH O 0.76079 0.641172 0.970015 0.2661 Uiso
N N 0.822769 0.658781 0.884021 0.2018 Uiso
CA C 0.837143 0.65309 0.906181 0.2216 Uiso
C C 0.853708 0.653904 0.885398 0.1964 Uiso
O O 0.865447 0.644063 0.892308 0.2080 Uiso
CB C 0.83461 0.635048 0.920822 0.2504 Uiso
CG C 0.82035 0.633393 0.947113 0.3347 Uiso
CD C 0.823928 0.643184 0.980658 0.4148 Uiso
NE N 0.808063 0.647246 0.9989 0.4937 Uiso
CZ C 0.806357 0.64829 1.03382 0.5319 Uiso
NH1 N 0.819446 0.644699 1.05508 0.5430 Uiso
NH2 N 0.791232 0.652147 1.04754 0.5658 Uiso
N N 0.854319 0.665325 0.859478 0.1766 Uiso
CA C 0.869419 0.667349 0.837741 0.1796 Uiso
C C 0.871443 0.655076 0.806737 0.1734 Uiso
O O 0.884697 0.655165 0.788972 0.1793 Uiso
N N 0.858635 0.644495 0.799721 0.1652 Uiso
CA C 0.859845 0.6324 0.77028 0.1484 Uiso
C C 0.850741 0.639173 0.738006 0.1474 Uiso
O O 0.835234 0.640689 0.73782 0.1455 Uiso
CB C 0.852613 0.615085 0.780632 0.1386 Uiso
CG C 0.863371 0.606249 0.808035 0.1211 Uiso
CD1 C 0.877045 0.596088 0.797921 0.1223 Uiso
CD2 C 0.859883 0.608018 0.844148 0.1229 Uiso
CE1 C 0.886976 0.587787 0.823073 0.1211 Uiso
CE2 C 0.869814 0.599768 0.869512 0.1268 Uiso
CZ C 0.883361 0.589621 0.858604 0.1189 Uiso
OH O 0.892999 0.580823 0.882882 0.1349 Uiso
N N 0.860519 0.642828 0.710338 0.1568 Uiso
CA C 0.853211 0.649639 0.677932 0.1636 Uiso
C C 0.841281 0.636691 0.661384 0.1682 Uiso
O O 0.842695 0.621336 0.668109 0.1557 Uiso
CB C 0.867153 0.654668 0.652038 0.1679 Uiso
OG O 0.877758 0.640638 0.64346 0.2001 Uiso
N N 0.829822 0.643031 0.639277 0.1716 Uiso
CA C 0.817167 0.632591 0.621697 0.1644 Uiso
C C 0.824233 0.616956 0.60311 0.1539 Uiso
O O 0.816428 0.603333 0.604222 0.1463 Uiso
CB C 0.807325 0.643617 0.595538 0.1804 Uiso
CG C 0.789717 0.637913 0.583651 0.1801 Uiso
CD1 C 0.778449 0.635036 0.615634 0.1971 Uiso
CD2 C 0.782141 0.651562 0.559743 0.1859 Uiso
N N 0.838862 0.618739 0.585875 0.1460 Uiso
CA C 0.846387 0.604313 0.567421 0.1398 Uiso
C C 0.849557 0.589073 0.591355 0.1308 Uiso
O O 0.848513 0.574584 0.579785 0.1491 Uiso
N N 0.853351 0.592345 0.624927 0.1168 Uiso
CA C 0.856496 0.578595 0.650211 0.1234 Uiso
C C 0.840441 0.568116 0.65593 0.1265 Uiso
O O 0.84095 0.55252 0.656645 0.1307 Uiso
CB C 0.862353 0.585699 0.685821 0.1384 Uiso
CG C 0.880763 0.59083 0.685477 0.1406 Uiso
OD1 O 0.891955 0.580084 0.686907 0.1416 Uiso
ND2 N 0.884048 0.607343 0.682591 0.1581 Uiso
N N 0.826143 0.576889 0.659716 0.1178 Uiso
CA C 0.809859 0.568625 0.665753 0.1222 Uiso
C C 0.803913 0.558618 0.633823 0.1225 Uiso
O O 0.797088 0.544626 0.637529 0.1310 Uiso
CB C 0.79663 0.581892 0.676343 0.1203 Uiso
CG C 0.801163 0.590244 0.710206 0.1170 Uiso
CD1 C 0.807987 0.606058 0.714654 0.1325 Uiso
CD2 C 0.799227 0.583178 0.744969 0.1335 Uiso
NE1 N 0.810368 0.609342 0.750079 0.1298 Uiso
CE2 C 0.80511 0.595528 0.7693 0.1330 Uiso
CE3 C 0.793052 0.567543 0.757969 0.1458 Uiso
CZ2 C 0.804931 0.592829 0.805943 0.1555 Uiso
CZ3 C 0.792887 0.564882 0.794373 0.1663 Uiso
CH2 C 0.798833 0.577461 0.817937 0.1686 Uiso
N N 0.806536 0.565697 0.602422 0.1194 Uiso
CA C 0.801316 0.557065 0.570068 0.1183 Uiso
C C 0.812405 0.541417 0.564376 0.1137 Uiso
O O 0.806128 0.527743 0.555639 0.1269 Uiso
CB C 0.802118 0.569147 0.537847 0.1402 Uiso
CG1 C 0.798018 0.559267 0.503534 0.1522 Uiso
CG2 C 0.789602 0.584018 0.543248 0.1294 Uiso
N N 0.828829 0.543327 0.570598 0.1046 Uiso
CA C 0.840505 0.529144 0.566812 0.1153 Uiso
C C 0.835768 0.514986 0.593155 0.1165 Uiso
O O 0.835641 0.499924 0.583862 0.1212 Uiso
CB C 0.858686 0.535242 0.57359 0.1232 Uiso
SG S 0.874677 0.518856 0.567818 0.1411 Uiso
N N 0.831707 0.519862 0.625853 0.1141 Uiso
CA C 0.826945 0.50741 0.652726 0.1324 Uiso
C C 0.810966 0.497772 0.641024 0.1311 Uiso
O O 0.81047 0.482086 0.642613 0.1432 Uiso
CB C 0.823953 0.516068 0.688178 0.1340 Uiso
N N 0.798273 0.507066 0.627918 0.1211 Uiso
CA C 0.782523 0.499134 0.616004 0.1180 Uiso
C C 0.785872 0.487128 0.585027 0.1258 Uiso
O O 0.7785 0.473288 0.583042 0.1334 Uiso
CB C 0.769536 0.512656 0.605626 0.1098 Uiso
N N 0.796847 0.492374 0.560722 0.1213 Uiso
CA C 0.800921 0.481781 0.530196 0.1370 Uiso
C C 0.807771 0.464529 0.541448 0.1444 Uiso
O O 0.801647 0.451173 0.529798 0.1546 Uiso
CB C 0.814289 0.490451 0.506897 0.1579 Uiso
CG C 0.82161 0.478967 0.478117 0.1791 Uiso
CD C 0.808191 0.473887 0.451297 0.2202 Uiso
CE C 0.815703 0.462313 0.423232 0.2466 Uiso
NZ N 0.802601 0.457793 0.396651 0.2831 Uiso
N N 0.820515 0.46486 0.564402 0.1388 Uiso
CA C 0.828295 0.44911 0.575469 0.1412 Uiso
C C 0.81914 0.439243 0.603613 0.1408 Uiso
O O 0.821814 0.424015 0.606738 0.1659 Uiso
CB C 0.847113 0.451899 0.583677 0.1483 Uiso
CG C 0.857082 0.457424 0.551668 0.1394 Uiso
CD1 C 0.856127 0.447977 0.520241 0.1392 Uiso
CD2 C 0.866618 0.472308 0.552118 0.1524 Uiso
CE1 C 0.864543 0.453426 0.489502 0.1650 Uiso
CE2 C 0.875072 0.477897 0.521617 0.1812 Uiso
CZ C 0.874041 0.468399 0.490217 0.1622 Uiso
N N 0.808127 0.447582 0.623576 0.1194 Uiso
CA C 0.798629 0.438555 0.650635 0.1277 Uiso
C C 0.783096 0.429554 0.635464 0.1392 Uiso
O O 0.779951 0.414823 0.643751 0.1393 Uiso
CB C 0.792594 0.450816 0.67952 0.1229 Uiso
CG C 0.806625 0.457029 0.704487 0.1389 Uiso
CD C 0.813436 0.443075 0.728845 0.1560 Uiso
OE1 O 0.805606 0.429261 0.730486 0.1619 Uiso
OE2 O 0.826512 0.445864 0.746663 0.1692 Uiso
N N 0.773814 0.438173 0.612033 0.1302 Uiso
CA C 0.757874 0.431222 0.598053 0.1364 Uiso
C C 0.755328 0.431807 0.558207 0.1415 Uiso
O O 0.74187 0.426613 0.545234 0.1387 Uiso
CB C 0.743347 0.441547 0.613992 0.1336 Uiso
OG O 0.743665 0.458366 0.599907 0.1337 Uiso
N N 0.767741 0.438797 0.539171 0.1437 Uiso
CA C 0.766621 0.441102 0.500913 0.1654 Uiso
C C 0.751432 0.452752 0.492864 0.1496 Uiso
O O 0.742506 0.450498 0.466706 0.1498 Uiso
CB C 0.765297 0.424079 0.481083 0.2099 Uiso
CG C 0.771752 0.425352 0.443407 0.2439 Uiso
OD1 O 0.781823 0.436671 0.434617 0.2777 Uiso
ND2 N 0.766201 0.413677 0.420903 0.2832 Uiso
N N 0.748554 0.464898 0.516719 0.1368 Uiso
CA C 0.735007 0.477592 0.514072 0.1399 Uiso
C C 0.71703 0.470233 0.516666 0.1422 Uiso
O O 0.704769 0.478483 0.505785 0.1474 Uiso
CB C 0.73637 0.48751 0.479176 0.1500 Uiso
CG C 0.752756 0.497059 0.474278 0.1397 Uiso
CD1 C 0.761006 0.504545 0.50274 0.1360 Uiso
CD2 C 0.759427 0.499134 0.440415 0.1515 Uiso
CE1 C 0.775661 0.51426 0.497524 0.1522 Uiso
CE2 C 0.773954 0.508734 0.434802 0.1600 Uiso
CZ C 0.782103 0.51631 0.463555 0.1460 Uiso
N N 0.715451 0.454929 0.531202 0.1334 Uiso
CA C 0.698912 0.446487 0.534379 0.1339 Uiso
C C 0.692253 0.448308 0.572028 0.1250 Uiso
O O 0.699689 0.441356 0.596889 0.1312 Uiso
CB C 0.700975 0.427619 0.52498 0.1308 Uiso
CG C 0.684245 0.417904 0.524741 0.1460 Uiso
OD1 O 0.670469 0.424881 0.53136 0.1475 Uiso
ND2 N 0.685416 0.401518 0.516772 0.1855 Uiso
N N 0.677917 0.457106 0.576025 0.1274 Uiso
CA C 0.670392 0.459805 0.610815 0.1308 Uiso
C C 0.664421 0.443419 0.62813 0.1203 Uiso
O O 0.662817 0.442693 0.66006 0.1235 Uiso
CB C 0.654936 0.471862 0.609332 0.1343 Uiso
OG1 O 0.641631 0.464338 0.588628 0.1451 Uiso
CG2 C 0.659927 0.48886 0.593261 0.1443 Uiso
N N 0.661327 0.430305 0.606791 0.1225 Uiso
CA C 0.654783 0.414174 0.620532 0.1253 Uiso
C C 0.668139 0.401034 0.630672 0.1374 Uiso
O O 0.663925 0.386876 0.641527 0.1519 Uiso
CB C 0.642255 0.406445 0.593844 0.1386 Uiso
CG C 0.626709 0.417598 0.586589 0.1349 Uiso
CD C 0.612525 0.407795 0.568771 0.1553 Uiso
OE1 O 0.603537 0.397851 0.585769 0.1893 Uiso
NE2 N 0.610858 0.409997 0.534273 0.1553 Uiso
N N 0.684245 0.405783 0.628024 0.1337 Uiso
CA C 0.697932 0.393993 0.63655 0.1450 Uiso
C C 0.698135 0.38871 0.675469 0.1311 Uiso
O O 0.695614 0.399201 0.699245 0.1225 Uiso
CB C 0.715094 0.401811 0.626383 0.1411 Uiso
N N 0.700376 0.372222 0.681506 0.1230 Uiso
CA C 0.70184 0.36541 0.71701 0.1349 Uiso
C C 0.7161 0.352449 0.716136 0.1327 Uiso
O O 0.718952 0.343918 0.689396 0.1519 Uiso
CB C 0.685543 0.356281 0.729798 0.1494 Uiso
OG1 O 0.681189 0.342989 0.705334 0.1681 Uiso
CG2 C 0.670762 0.36858 0.733717 0.1473 Uiso
N N 0.725255 0.351036 0.745339 0.1375 Uiso
CA C 0.738878 0.338647 0.747961 0.1522 Uiso
C C 0.740444 0.332893 0.786139 0.1475 Uiso
O O 0.741093 0.343371 0.81002 0.1440 Uiso
CB C 0.755519 0.346325 0.73467 0.1909 Uiso
CG C 0.755442 0.349177 0.694532 0.2229 Uiso
OD1 O 0.753176 0.363411 0.681797 0.2591 Uiso
ND2 N 0.757441 0.335464 0.674649 0.2258 Uiso
N N 0.740457 0.316137 0.791699 0.1598 Uiso
CA C 0.741768 0.308765 0.82723 0.1776 Uiso
C C 0.760344 0.307543 0.838191 0.1858 Uiso
O O 0.771268 0.303227 0.816639 0.1988 Uiso
CB C 0.73418 0.290775 0.827812 0.2094 Uiso
CG C 0.730564 0.283836 0.86472 0.2314 Uiso
CD C 0.713312 0.289858 0.87629 0.2910 Uiso
NE N 0.709785 0.286815 0.913674 0.3370 Uiso
CZ C 0.699905 0.274325 0.925959 0.3282 Uiso
NH1 N 0.692699 0.263401 0.903772 0.3320 Uiso
NH2 N 0.695958 0.273791 0.960113 0.3146 Uiso
N N 0.763756 0.311134 0.871762 0.1940 Uiso
CA C 0.780919 0.310242 0.886245 0.2195 Uiso
C C 0.78223 0.293767 0.907081 0.2261 Uiso
O O 0.769307 0.286675 0.917857 0.2366 Uiso
CB C 0.784229 0.325572 0.910153 0.2324 Uiso
CG C 0.781988 0.342505 0.890799 0.2392 Uiso
OD1 O 0.773152 0.353989 0.903348 0.2750 Uiso
ND2 N 0.789844 0.343995 0.860034 0.2646 Uiso
N N 0.797763 0.287885 0.913886 0.2624 Uiso
CA C 0.800539 0.271843 0.933213 0.2837 Uiso
C C 0.793791 0.272097 0.970862 0.2736 Uiso
O O 0.788405 0.25892 0.984471 0.2956 Uiso
CB C 0.819573 0.266724 0.934113 0.3035 Uiso
OG1 O 0.829402 0.280055 0.949972 0.3435 Uiso
CG2 C 0.825926 0.263694 0.896941 0.3161 Uiso
N N 0.793995 0.286981 0.987595 0.2570 Uiso
CA C 0.78759 0.288445 1.02355 0.2524 Uiso
C C 0.768098 0.288089 1.02474 0.2462 Uiso
O O 0.760599 0.289642 1.05328 0.2660 Uiso
CB C 0.79444 0.3045 1.04163 0.2517 Uiso
CG C 0.788533 0.320657 1.02418 0.2769 Uiso
OD1 O 0.780091 0.319931 0.996464 0.3011 Uiso
OD2 O 0.79239 0.334446 1.03793 0.3062 Uiso
N N 0.759886 0.286663 0.994029 0.2215 Uiso
CA C 0.741462 0.28595 0.993261 0.1920 Uiso
C C 0.732652 0.302756 0.985715 0.1890 Uiso
O O 0.717182 0.303163 0.979758 0.1967 Uiso
N N 0.742163 0.316723 0.986668 0.1648 Uiso
CA C 0.734753 0.333236 0.979017 0.1505 Uiso
C C 0.732983 0.334382 0.938694 0.1407 Uiso
O O 0.739336 0.323407 0.919472 0.1508 Uiso
CB C 0.746313 0.347305 0.992546 0.1541 Uiso
OG O 0.762088 0.346898 0.974489 0.1748 Uiso
N N 0.724223 0.347407 0.925879 0.1293 Uiso
CA C 0.721791 0.349482 0.887807 0.1318 Uiso
C C 0.724567 0.368186 0.879176 0.1286 Uiso
O O 0.721028 0.37911 0.901495 0.1307 Uiso
CB C 0.703508 0.344249 0.876846 0.1405 Uiso
OG1 O 0.700618 0.326705 0.886139 0.1312 Uiso
CG2 C 0.70072 0.346567 0.836973 0.1417 Uiso
N N 0.731837 0.37156 0.84804 0.1170 Uiso
CA C 0.734995 0.388824 0.835226 0.1273 Uiso
C C 0.720506 0.392911 0.810126 0.1216 Uiso
O O 0.715731 0.382216 0.788416 0.1179 Uiso
CB C 0.751877 0.389779 0.815845 0.1384 Uiso
CG C 0.766748 0.387004 0.839991 0.1738 Uiso
OD1 O 0.765068 0.389537 0.872212 0.1830 Uiso
OD2 O 0.78046 0.382395 0.826674 0.2647 Uiso
N N 0.714101 0.408559 0.812324 0.1237 Uiso
CA C 0.699396 0.413919 0.791778 0.1160 Uiso
C C 0.701229 0.430127 0.771471 0.1253 Uiso
O O 0.707697 0.442846 0.785001 0.1321 Uiso
CB C 0.684385 0.417076 0.816613 0.1165 Uiso
CG C 0.678108 0.401569 0.835543 0.1212 Uiso
CD1 C 0.685645 0.396221 0.867023 0.1246 Uiso
CD2 C 0.664752 0.391944 0.821696 0.1211 Uiso
CE1 C 0.680107 0.381656 0.884206 0.1226 Uiso
CE2 C 0.659112 0.377416 0.838667 0.1369 Uiso
CZ C 0.666904 0.372438 0.869856 0.1310 Uiso
OH O 0.661454 0.358102 0.886801 0.1424 Uiso
N N 0.694558 0.429796 0.739409 0.1273 Uiso
CA C 0.693959 0.445049 0.71836 0.1343 Uiso
C C 0.709301 0.450778 0.698133 0.1197 Uiso
O O 0.722695 0.442642 0.697286 0.1213 Uiso
N N 0.70715 0.465916 0.68365 0.1311 Uiso
CA C 0.719652 0.473899 0.661543 0.1436 Uiso
C C 0.73679 0.476433 0.680209 0.1348 Uiso
O O 0.750107 0.475465 0.66329 0.1417 Uiso
CB C 0.711975 0.490426 0.64526 0.1763 Uiso
CG1 C 0.721575 0.495175 0.611556 0.2052 Uiso
CG2 C 0.711122 0.50466 0.672901 0.1724 Uiso
CD1 C 0.711682 0.506455 0.587145 0.2457 Uiso
N N 0.736484 0.478827 0.715051 0.1272 Uiso
CA C 0.752119 0.48108 0.734881 0.1381 Uiso
C C 0.7559 0.466006 0.758445 0.1377 Uiso
O O 0.766608 0.46696 0.782088 0.1358 Uiso
CB C 0.751801 0.497721 0.75585 0.1672 Uiso
CG C 0.754016 0.513547 0.732657 0.1816 Uiso
CD1 C 0.750935 0.529526 0.754368 0.1910 Uiso
CD2 C 0.771777 0.513394 0.716242 0.1958 Uiso
N N 0.746542 0.452153 0.752938 0.1260 Uiso
CA C 0.749458 0.436544 0.772848 0.1254 Uiso
C C 0.751342 0.439167 0.8128 0.1241 Uiso
O O 0.763985 0.433985 0.828607 0.1408 Uiso
CB C 0.765118 0.427466 0.757624 0.1211 Uiso
CG C 0.761859 0.419928 0.720929 0.1299 Uiso
CD C 0.749407 0.405287 0.722411 0.1340 Uiso
OE1 O 0.754347 0.390887 0.729613 0.1299 Uiso
NE2 N 0.733021 0.408992 0.716719 0.1367 Uiso
N N 0.738445 0.446869 0.828792 0.1288 Uiso
CA C 0.738356 0.45032 0.866494 0.1397 Uiso
C C 0.734485 0.433921 0.886801 0.1512 Uiso
O O 0.722632 0.424321 0.878143 0.1360 Uiso
CB C 0.726095 0.464872 0.874542 0.1549 Uiso
CG1 C 0.733849 0.481399 0.860272 0.1386 Uiso
CG2 C 0.722263 0.465916 0.914018 0.1688 Uiso
CD1 C 0.722059 0.496422 0.861781 0.1520 Uiso
N N 0.745053 0.4307 0.913303 0.1559 Uiso
CA C 0.744391 0.415065 0.934113 0.1686 Uiso
C C 0.731162 0.414212 0.963978 0.1624 Uiso
O O 0.729532 0.42604 0.985477 0.1755 Uiso
CB C 0.762457 0.411398 0.947484 0.1681 Uiso
CG C 0.763871 0.394388 0.965011 0.1579 Uiso
CG C 0.76466 0.393229 0.960616 0.1857 Uiso
OD1 O 0.763209 0.393319 0.997153 0.1703 Uiso
OD1 O 0.752386 0.38447 0.96885 0.2087 Uiso
ND2 N 0.765602 0.380956 0.944201 0.1479 Uiso
ND2 N 0.780499 0.387818 0.964031 0.2042 Uiso
N N 0.72225 0.399736 0.965885 0.1525 Uiso
CA C 0.709034 0.39668 0.992361 0.1606 Uiso
C C 0.715833 0.393408 1.0299 0.1678 Uiso
O O 0.70608 0.393713 1.0554 0.1844 Uiso
CB C 0.697855 0.38172 0.980764 0.1408 Uiso
OG O 0.707302 0.366314 0.980632 0.1389 Uiso
N N 0.732346 0.389957 1.03308 0.1969 Uiso
CA C 0.740329 0.386825 1.06758 0.2401 Uiso
C C 0.739476 0.40274 1.09059 0.2418 Uiso
O O 0.737324 0.401505 1.12289 0.2457 Uiso
CB C 0.758982 0.381338 1.06281 0.2752 Uiso
CG C 0.769587 0.379861 1.09636 0.3651 Uiso
CD C 0.764724 0.364506 1.11876 0.4343 Uiso
NE N 0.766506 0.348362 1.09961 0.4868 Uiso
CZ C 0.757594 0.334369 1.10698 0.5105 Uiso
NH1 N 0.746224 0.334433 1.13321 0.5375 Uiso
NH2 N 0.759975 0.320326 1.08807 0.5081 Uiso
N N 0.739871 0.417662 1.07388 0.2229 Uiso
CA C 0.739591 0.433463 1.09392 0.2266 Uiso
C C 0.726833 0.446768 1.08344 0.2006 Uiso
O O 0.720276 0.455947 1.10589 0.2104 Uiso
CB C 0.756792 0.442591 1.09069 0.2708 Uiso
CG C 0.771968 0.431744 1.09538 0.3432 Uiso
CD1 C 0.781836 0.424818 1.06917 0.3688 Uiso
CD2 C 0.779124 0.426358 1.12813 0.3807 Uiso
NE1 N 0.79472 0.41537 1.08394 0.3982 Uiso
CE2 C 0.793358 0.416071 1.12005 0.4047 Uiso
CE3 C 0.774858 0.429159 1.16369 0.4112 Uiso
CZ2 C 0.803467 0.408521 1.1464 0.4475 Uiso
CZ3 C 0.784853 0.421673 1.18992 0.4467 Uiso
CH2 C 0.799011 0.411462 1.18111 0.4567 Uiso
N N 0.722199 0.447251 1.0492 0.1881 Uiso
CA C 0.713439 0.462797 1.0374 0.1692 Uiso
C C 0.694519 0.460645 1.0294 0.1639 Uiso
O O 0.685225 0.473492 1.02953 0.1678 Uiso
CB C 0.722122 0.469392 1.00457 0.1720 Uiso
CG C 0.741106 0.471442 1.01142 0.1662 Uiso
CD1 C 0.753596 0.461257 0.999615 0.1674 Uiso
CD2 C 0.748656 0.484645 1.03205 0.1654 Uiso
NE1 N 0.769231 0.467724 1.01277 0.1772 Uiso
CE2 C 0.766137 0.481577 1.03205 0.1763 Uiso
CE3 C 0.742226 0.498778 1.05071 0.1863 Uiso
CZ2 C 0.777825 0.492004 1.05024 0.1764 Uiso
CZ3 C 0.754029 0.509142 1.06874 0.1783 Uiso
CH2 C 0.771115 0.505844 1.06848 0.1836 Uiso
N N 0.688013 0.445583 1.02199 0.1633 Uiso
CA C 0.670074 0.443686 1.01412 0.1549 Uiso
C C 0.663861 0.426829 1.02882 0.1595 Uiso
O O 0.674008 0.415485 1.0375 0.1591 Uiso
CB C 0.666993 0.44482 0.974092 0.1459 Uiso
SG S 0.677777 0.428395 0.94804 0.1410 Uiso
N N 0.647156 0.425467 1.0325 0.1568 Uiso
CA C 0.639441 0.410087 1.04621 0.1687 Uiso
C C 0.63184 0.399035 1.01693 0.1527 Uiso
O O 0.620954 0.405032 0.996835 0.1487 Uiso
CB C 0.625397 0.414505 1.07277 0.1833 Uiso
CG C 0.617733 0.398691 1.08982 0.2379 Uiso
OD1 O 0.626925 0.386774 1.09946 0.2651 Uiso
ND2 N 0.600914 0.398271 1.09278 0.2969 Uiso
N N 0.63776 0.383197 1.01404 0.1345 Uiso
CA C 0.630592 0.37156 0.988019 0.1334 Uiso
C C 0.621973 0.356421 1.00555 0.1484 Uiso
O O 0.61646 0.344542 0.98786 0.1629 Uiso
CB C 0.64377 0.36569 0.960907 0.1384 Uiso
CG C 0.65831 0.355555 0.976846 0.1254 Uiso
OD1 O 0.658475 0.351634 1.00896 0.1456 Uiso
OD2 O 0.670087 0.351596 0.956353 0.1411 Uiso
N N 0.620941 0.356969 1.04057 0.1682 Uiso
CA C 0.612869 0.343409 1.06035 0.1873 Uiso
C C 0.622087 0.326412 1.06107 0.2126 Uiso
O O 0.615123 0.314049 1.0751 0.2449 Uiso
N N 0.637569 0.325419 1.0469 0.1858 Uiso
CA C 0.646711 0.309249 1.04695 0.2021 Uiso
C C 0.665796 0.31065 1.05371 0.2080 Uiso
O O 0.675765 0.300006 1.04118 0.2351 Uiso
CB C 0.643693 0.299713 1.01235 0.2028 Uiso
CG C 0.651383 0.308294 0.980526 0.2124 Uiso
CD C 0.652224 0.295842 0.950528 0.2328 Uiso
NE N 0.663784 0.301444 0.922835 0.2449 Uiso
CZ C 0.663517 0.295486 0.889845 0.2663 Uiso
NH1 N 0.652173 0.283581 0.880897 0.2798 Uiso
NH2 N 0.674518 0.301394 0.865885 0.2381 Uiso
N N 0.670991 0.323611 1.07332 0.2020 Uiso
CA C 0.688892 0.325852 1.08201 0.1992 Uiso
C C 0.689057 0.327634 1.12228 0.2311 Uiso
O O 0.688434 0.341716 1.13647 0.2404 Uiso
CB C 0.696327 0.342072 1.06451 0.1899 Uiso
OG1 O 0.692088 0.342212 1.02752 0.1665 Uiso
CG2 C 0.715604 0.342582 1.06858 0.1690 Uiso
N N 0.688421 0.313247 1.14118 0.2617 Uiso
CA C 0.688383 0.312687 1.17992 0.2875 Uiso
C C 0.701662 0.324133 1.19668 0.3092 Uiso
O O 0.716431 0.32454 1.18526 0.3247 Uiso
CB C 0.69224 0.294111 1.18738 0.3026 Uiso
CG C 0.682984 0.285351 1.15778 0.3033 Uiso
CD C 0.687988 0.295944 1.12622 0.2717 Uiso
N N 0.696098 0.333733 1.22318 0.3307 Uiso
CA C 0.707519 0.345217 1.24171 0.3540 Uiso
C C 0.714853 0.359375 1.21892 0.3620 Uiso
O O 0.729532 0.364341 1.22376 0.3998 Uiso
N N 0.705049 0.365334 1.19326 0.3451 Uiso
CA C 0.710829 0.379021 1.17046 0.3369 Uiso
C C 0.702401 0.395521 1.18254 0.3341 Uiso
O O 0.689643 0.395407 1.20173 0.3298 Uiso
CB C 0.706373 0.375392 1.1317 0.3383 Uiso
OG O 0.688637 0.377111 1.12522 0.3403 Uiso
N N 0.710027 0.409679 1.17221 0.3168 Uiso
CA C 0.70333 0.426269 1.18143 0.3142 Uiso
C C 0.693857 0.432622 1.14907 0.2894 Uiso
O O 0.694749 0.42497 1.12032 0.2923 Uiso
CB C 0.717832 0.438428 1.19109 0.3434 Uiso
CG C 0.727623 0.433182 1.22424 0.4111 Uiso
CD C 0.722479 0.443865 1.25638 0.4896 Uiso
NE N 0.73143 0.460276 1.25733 0.5484 Uiso
CZ C 0.727432 0.473225 1.27865 0.5798 Uiso
NH1 N 0.714458 0.472015 1.30112 0.5775 Uiso
NH2 N 0.736484 0.487497 1.27753 0.5959 Uiso
N N 0.684385 0.446309 1.15405 0.2522 Uiso
CA C 0.674632 0.454152 1.12575 0.2289 Uiso
C C 0.677879 0.473123 1.13046 0.2151 Uiso
O O 0.666191 0.483066 1.13697 0.2059 Uiso
CB C 0.655712 0.449976 1.1298 0.2168 Uiso
CG C 0.64489 0.457692 1.10073 0.2053 Uiso
OD1 O 0.651383 0.465509 1.076 0.2135 Uiso
ND2 N 0.628224 0.455769 1.10398 0.2076 Uiso
N N 0.69401 0.477974 1.12715 0.2139 Uiso
CA C 0.699205 0.495633 1.13207 0.2149 Uiso
C C 0.690713 0.508556 1.10793 0.2073 Uiso
O O 0.689032 0.523376 1.1178 0.2295 Uiso
CB C 0.718596 0.497173 1.13075 0.2361 Uiso
CG C 0.727228 0.487688 1.16122 0.2600 Uiso
CD1 C 0.74653 0.488032 1.15731 0.2660 Uiso
CD2 C 0.721715 0.495811 1.19615 0.2847 Uiso
N N 0.685098 0.503234 1.07671 0.1904 Uiso
CA C 0.676427 0.515126 1.05331 0.1871 Uiso
C C 0.657266 0.514998 1.05929 0.1983 Uiso
O O 0.647984 0.52484 1.04293 0.2025 Uiso
CB C 0.680616 0.511573 1.01449 0.1777 Uiso
SG S 0.702401 0.517545 1.00422 0.1852 Uiso
N N 0.651358 0.503705 1.08238 0.2138 Uiso
CA C 0.633291 0.50247 1.0908 0.2447 Uiso
C C 0.621947 0.500064 1.05903 0.2314 Uiso
O O 0.609661 0.509511 1.05355 0.2192 Uiso
CB C 0.627422 0.518054 1.1115 0.3143 Uiso
CG C 0.626161 0.514438 1.1504 0.3945 Uiso
OD1 O 0.61553 0.5041 1.16173 0.4514 Uiso
ND2 N 0.637353 0.52223 1.17118 0.4258 Uiso
N N 0.625919 0.487128 1.03816 0.2106 Uiso
CA C 0.615976 0.483448 1.00666 0.2206 Uiso
C C 0.616765 0.464707 0.997365 0.2016 Uiso
O O 0.628657 0.455667 1.00777 0.1809 Uiso
CB C 0.62294 0.492552 0.972715 0.2246 Uiso
CG1 C 0.642216 0.490082 0.969829 0.2457 Uiso
CG2 C 0.61702 0.51086 0.970571 0.2532 Uiso
CD1 C 0.649397 0.49385 0.933425 0.2764 Uiso
N N 0.603231 0.458265 0.98042 0.1902 Uiso
CA C 0.603804 0.4403 0.9702 0.1778 Uiso
C C 0.616243 0.4403 0.9388 0.1539 Uiso
O O 0.617083 0.452675 0.918519 0.1439 Uiso
CB C 0.585508 0.436633 0.958498 0.1872 Uiso
CG C 0.578595 0.453846 0.947749 0.2220 Uiso
CD C 0.586157 0.465611 0.975098 0.2067 Uiso
N N 0.626391 0.426957 0.93557 0.1383 Uiso
CA C 0.63869 0.426142 0.906764 0.1279 Uiso
C C 0.630147 0.427313 0.870571 0.1375 Uiso
O O 0.637697 0.433819 0.845075 0.1465 Uiso
CB C 0.649295 0.409947 0.90965 0.1203 Uiso
SG S 0.661378 0.40847 0.950661 0.1294 Uiso
N N 0.614295 0.421482 0.868321 0.1349 Uiso
CA C 0.605026 0.422182 0.834934 0.1598 Uiso
C C 0.603511 0.440452 0.821061 0.1597 Uiso
O O 0.60318 0.443228 0.788919 0.1726 Uiso
CB C 0.587392 0.414288 0.839038 0.1573 Uiso
OG O 0.578124 0.42278 0.865779 0.1924 Uiso
N N 0.603155 0.452917 0.844969 0.1621 Uiso
CA C 0.602034 0.470907 0.834352 0.1835 Uiso
C C 0.617427 0.476013 0.811688 0.1852 Uiso
O O 0.616383 0.487624 0.789422 0.2024 Uiso
CB C 0.600863 0.48229 0.866917 0.1824 Uiso
N N 0.631598 0.467101 0.816957 0.1614 Uiso
CA C 0.647271 0.470411 0.797709 0.1662 Uiso
C C 0.6475 0.46365 0.759795 0.1643 Uiso
O O 0.659825 0.466451 0.740627 0.1825 Uiso
CB C 0.662257 0.462848 0.818228 0.1605 Uiso
CG C 0.66451 0.470143 0.855374 0.1887 Uiso
CD1 C 0.678057 0.46006 0.87531 0.1923 Uiso
CD2 C 0.669043 0.489 0.852964 0.1812 Uiso
N N 0.633915 0.455158 0.748464 0.1625 Uiso
CA C 0.633368 0.448015 0.712959 0.1587 Uiso
C C 0.622113 0.458086 0.688204 0.1755 Uiso
O O 0.620979 0.454127 0.65646 0.1887 Uiso
CB C 0.626964 0.429541 0.714124 0.1673 Uiso
CG C 0.63692 0.417624 0.73872 0.1866 Uiso
CD1 C 0.628924 0.40013 0.737741 0.2109 Uiso
CD2 C 0.655381 0.416478 0.727098 0.1730 Uiso
N N 0.61385 0.471098 0.702819 0.1869 Uiso
CA C 0.602378 0.48229 0.683068 0.1891 Uiso
C C 0.610743 0.49147 0.65217 0.1887 Uiso
O O 0.625945 0.494729 0.652673 0.1891 Uiso
CB C 0.594815 0.495607 0.708167 0.1892 Uiso
OG O 0.585164 0.507728 0.689025 0.2401 Uiso
N N 0.600672 0.495735 0.625377 0.1968 Uiso
CA C 0.607114 0.505156 0.595115 0.2025 Uiso
C C 0.611558 0.523198 0.60687 0.2123 Uiso
O O 0.621412 0.532034 0.589687 0.2394 Uiso
CB C 0.593758 0.505335 0.565567 0.2021 Uiso
CB C 0.594077 0.505271 0.565064 0.2092 Uiso
OG O 0.577614 0.510096 0.578302 0.1836 Uiso
OG O 0.592141 0.488299 0.552144 0.2137 Uiso
N N 0.604288 0.528481 0.636603 0.2182 Uiso
CA C 0.607433 0.545224 0.652197 0.2238 Uiso
C C 0.622495 0.542143 0.676978 0.2110 Uiso
O O 0.621209 0.532161 0.702078 0.2125 Uiso
CB C 0.591887 0.550864 0.67359 0.2494 Uiso
CG C 0.593351 0.569147 0.687092 0.3024 Uiso
OD1 O 0.607573 0.574801 0.695379 0.2984 Uiso
OD2 O 0.580237 0.57806 0.68876 0.3499 Uiso
N N 0.636716 0.550699 0.670227 0.1959 Uiso
CA C 0.652007 0.548 0.691673 0.1748 Uiso
C C 0.652784 0.55746 0.726542 0.1692 Uiso
O O 0.665172 0.555753 0.746054 0.1596 Uiso
CB C 0.668457 0.551794 0.670836 0.1782 Uiso
CG1 C 0.66973 0.570803 0.661781 0.1748 Uiso
CG2 C 0.669208 0.540577 0.637529 0.1873 Uiso
CD1 C 0.686295 0.575692 0.644466 0.1983 Uiso
N N 0.639759 0.567403 0.734776 0.1671 Uiso
CA C 0.639657 0.577181 0.767473 0.1714 Uiso
C C 0.645068 0.567314 0.800701 0.1665 Uiso
O O 0.656133 0.573133 0.820478 0.1693 Uiso
CB C 0.622151 0.585495 0.773245 0.1869 Uiso
OG1 O 0.618178 0.59591 0.74346 0.2149 Uiso
CG2 C 0.622456 0.59661 0.805652 0.2106 Uiso
N N 0.637544 0.552456 0.806896 0.1484 Uiso
CA C 0.641745 0.542627 0.838588 0.1595 Uiso
C C 0.660283 0.537317 0.837873 0.1536 Uiso
O O 0.668979 0.538336 0.864958 0.1749 Uiso
CB C 0.630185 0.526992 0.841871 0.1595 Uiso
N N 0.666229 0.531359 0.807293 0.1382 Uiso
CA C 0.684003 0.52605 0.803693 0.1431 Uiso
C C 0.696226 0.540857 0.811159 0.1455 Uiso
O O 0.708932 0.53896 0.830089 0.1496 Uiso
CB C 0.687275 0.518589 0.766785 0.1397 Uiso
OG O 0.681787 0.501413 0.76517 0.1551 Uiso
N N 0.69219 0.555664 0.796623 0.1481 Uiso
CA C 0.702821 0.570573 0.801998 0.1591 Uiso
C C 0.702872 0.576265 0.84068 0.1667 Uiso
O O 0.716444 0.579524 0.855559 0.1648 Uiso
CB C 0.697282 0.585292 0.777587 0.1790 Uiso
CG1 C 0.706742 0.601869 0.787622 0.1904 Uiso
CG2 C 0.700924 0.580466 0.739382 0.1855 Uiso
N N 0.687912 0.577309 0.857174 0.1559 Uiso
CA C 0.68688 0.582669 0.894188 0.1823 Uiso
C C 0.696735 0.570866 0.918413 0.1771 Uiso
O O 0.705214 0.576634 0.943036 0.1830 Uiso
CB C 0.668419 0.58384 0.906923 0.2205 Uiso
CG C 0.658666 0.598164 0.889104 0.2843 Uiso
OD1 O 0.666254 0.609623 0.873245 0.2902 Uiso
ND2 N 0.641682 0.597527 0.891566 0.3141 Uiso
N N 0.695564 0.554327 0.911582 0.1577 Uiso
CA C 0.704667 0.542028 0.933028 0.1473 Uiso
C C 0.72379 0.543123 0.925615 0.1421 Uiso
O O 0.734129 0.542359 0.950025 0.1432 Uiso
CB C 0.697906 0.524178 0.92572 0.1546 Uiso
SG S 0.706271 0.507907 0.955082 0.1771 Uiso
N N 0.728463 0.545364 0.892017 0.1401 Uiso
CA C 0.746364 0.546803 0.881744 0.1382 Uiso
C C 0.75464 0.56203 0.900648 0.1473 Uiso
O O 0.769447 0.561343 0.911053 0.1532 Uiso
CB C 0.747943 0.548674 0.841871 0.1301 Uiso
N N 0.745066 0.575794 0.905202 0.1525 Uiso
CA C 0.751763 0.59069 0.923523 0.1627 Uiso
C C 0.756473 0.586132 0.96149 0.1691 Uiso
O O 0.76918 0.592167 0.975019 0.1950 Uiso
CB C 0.738661 0.605154 0.923258 0.1750 Uiso
CG C 0.736713 0.613468 0.887489 0.1779 Uiso
CD C 0.723294 0.627307 0.888125 0.2066 Uiso
CE C 0.721486 0.634985 0.851217 0.2325 Uiso
NZ N 0.706564 0.646507 0.84796 0.2398 Uiso
N N 0.746211 0.575564 0.978831 0.1747 Uiso
CA C 0.750095 0.570599 1.01532 0.2006 Uiso
C C 0.765819 0.559229 1.01603 0.1863 Uiso
O O 0.776832 0.560935 1.03877 0.1844 Uiso
CB C 0.735096 0.561215 1.03258 0.2380 Uiso
CG C 0.719207 0.572114 1.03774 0.3271 Uiso
CD C 0.706373 0.563494 1.06226 0.3739 Uiso
CE C 0.69014 0.574266 1.06649 0.4154 Uiso
NZ N 0.680081 0.57615 1.03303 0.4397 Uiso
N N 0.766761 0.547529 0.990772 0.1603 Uiso
CA C 0.781123 0.535739 0.988707 0.1578 Uiso
C C 0.797929 0.545224 0.983571 0.1465 Uiso
O O 0.80977 0.54278 1.00364 0.1474 Uiso
CB C 0.778512 0.522421 0.958154 0.1617 Uiso
CG1 C 0.762852 0.511357 0.96562 0.1487 Uiso
CG2 C 0.7943 0.511319 0.953229 0.1367 Uiso
CD1 C 0.758141 0.499924 0.935199 0.1435 Uiso
N N 0.798629 0.556594 0.95773 0.1558 Uiso
CA C 0.814213 0.565875 0.949972 0.1662 Uiso
C C 0.819662 0.578124 0.979626 0.2080 Uiso
O O 0.83433 0.583827 0.980632 0.2050 Uiso
CB C 0.812863 0.575157 0.914018 0.1601 Uiso
CG1 C 0.801252 0.590626 0.916825 0.1570 Uiso
CG2 C 0.830281 0.579919 0.900542 0.1759 Uiso
N N 0.807923 0.581994 1.00369 0.2211 Uiso
CA C 0.811565 0.593186 1.03364 0.2660 Uiso
C C 0.81709 0.582669 1.06573 0.2962 Uiso
O O 0.822642 0.589633 1.09249 0.3195 Uiso
CB C 0.795624 0.603218 1.0433 0.2363 Uiso
OG O 0.790773 0.614117 1.01537 0.2662 Uiso
N N 0.815715 0.565875 1.06207 0.3359 Uiso
CA C 0.81965 0.553385 1.08955 0.3658 Uiso
C C 0.838035 0.552787 1.10261 0.3724 Uiso
O O 0.841816 0.544193 1.12879 0.3886 Uiso
CB C 0.814468 0.535815 1.07608 0.3979 Uiso
CG C 0.813169 0.522828 1.10507 0.4637 Uiso
OD1 O 0.804257 0.526241 1.13168 0.4884 Uiso
OD2 O 0.820757 0.508951 1.10078 0.5027 Uiso
N N 0.849608 0.561406 1.08426 0.3673 Uiso
CA C 0.867293 0.561228 1.09593 0.3511 Uiso
C C 0.880292 0.554264 1.06988 0.3402 Uiso
O O 0.894883 0.560311 1.06956 0.3432 Uiso
N N 0.875428 0.541697 1.0483 0.3047 Uiso
CA C 0.887269 0.534516 1.02236 0.2714 Uiso
C C 0.884659 0.541634 0.985265 0.2159 Uiso
O O 0.893024 0.536261 0.96006 0.1964 Uiso
CB C 0.885983 0.515215 1.02185 0.3312 Uiso
CG C 0.888963 0.507639 1.05792 0.4025 Uiso
OD1 O 0.902828 0.50932 1.07285 0.4319 Uiso
ND2 N 0.87576 0.499834 1.07303 0.4288 Uiso
N N 0.873188 0.553882 0.982114 0.1817 Uiso
CA C 0.86989 0.561597 0.94804 0.1695 Uiso
C C 0.863562 0.548649 0.921246 0.1593 Uiso
O O 0.854701 0.536554 0.93038 0.1698 Uiso
N N 0.868833 0.550686 0.888125 0.1453 Uiso
CA C 0.863091 0.539113 0.860457 0.1324 Uiso
C C 0.871685 0.521874 0.860722 0.1363 Uiso
O O 0.86728 0.510708 0.839806 0.1215 Uiso
CB C 0.864263 0.547478 0.824159 0.1203 Uiso
CG C 0.850168 0.560515 0.81844 0.1264 Uiso
SD S 0.847838 0.566741 0.773086 0.1517 Uiso
CE C 0.836354 0.548509 0.756009 0.1587 Uiso
N N 0.883972 0.519658 0.88455 0.1417 Uiso
CA C 0.892795 0.503349 0.887674 0.1477 Uiso
C C 0.880241 0.489649 0.89935 0.1435 Uiso
O O 0.883984 0.474498 0.89612 0.1529 Uiso
CB C 0.907895 0.504494 0.913091 0.1458 Uiso
CG C 0.922066 0.515673 0.898688 0.1560 Uiso
OD1 O 0.929934 0.511764 0.871312 0.1634 Uiso
ND2 N 0.925134 0.529882 0.916427 0.1693 Uiso
N N 0.865345 0.495136 0.912191 0.1455 Uiso
CA C 0.851836 0.483474 0.923073 0.1484 Uiso
C C 0.845865 0.472894 0.891169 0.1567 Uiso
O O 0.838849 0.45899 0.895432 0.1896 Uiso
CB C 0.837054 0.493367 0.938561 0.1583 Uiso
N N 0.84836 0.479654 0.859292 0.1340 Uiso
CA C 0.843662 0.470793 0.826727 0.1364 Uiso
C C 0.859577 0.462593 0.811715 0.1450 Uiso
O O 0.870845 0.471289 0.797815 0.1336 Uiso
CB C 0.835768 0.482965 0.799801 0.1350 Uiso
CG C 0.81802 0.487714 0.809676 0.1339 Uiso
CD1 C 0.803607 0.478419 0.80319 0.1358 Uiso
CD2 C 0.812622 0.502725 0.828024 0.1217 Uiso
NE1 N 0.789666 0.486797 0.816163 0.1346 Uiso
CE2 C 0.794771 0.501757 0.831466 0.1346 Uiso
CE3 C 0.821127 0.516921 0.841924 0.1283 Uiso
CZ2 C 0.785159 0.514438 0.848411 0.1192 Uiso
CZ3 C 0.811552 0.529538 0.858816 0.1279 Uiso
CH2 C 0.793753 0.528163 0.861754 0.1158 Uiso
N N 0.860239 0.445736 0.814071 0.1534 Uiso
CA C 0.874906 0.436136 0.80176 0.1584 Uiso
C C 0.87935 0.43937 0.762787 0.1517 Uiso
O O 0.89431 0.44184 0.75405 0.1600 Uiso
CB C 0.872233 0.416707 0.807611 0.1743 Uiso
CB C 0.872436 0.416873 0.808299 0.1758 Uiso
CG1 C 0.887358 0.406611 0.793155 0.1899 Uiso
CG1 C 0.858444 0.409857 0.784471 0.1706 Uiso
CG2 C 0.869725 0.412964 0.846901 0.1736 Uiso
CG2 C 0.889255 0.407438 0.803401 0.1910 Uiso
N N 0.866592 0.440274 0.739727 0.1550 Uiso
CA C 0.870132 0.443241 0.70221 0.1539 Uiso
C C 0.877364 0.461053 0.696385 0.1472 Uiso
O O 0.887638 0.463714 0.672689 0.1532 Uiso
CB C 0.854255 0.440516 0.679785 0.1617 Uiso
N N 0.871774 0.473326 0.717593 0.1406 Uiso
CA C 0.878471 0.490502 0.713992 0.1239 Uiso
C C 0.897264 0.490145 0.724159 0.1335 Uiso
O O 0.908124 0.497021 0.705281 0.1246 Uiso
CB C 0.86919 0.503183 0.737979 0.1083 Uiso
CG C 0.877173 0.520448 0.735755 0.1089 Uiso
CD1 C 0.87483 0.532263 0.70957 0.1294 Uiso
CD2 C 0.889599 0.527539 0.759425 0.1194 Uiso
NE1 N 0.885079 0.546179 0.715369 0.1210 Uiso
CE2 C 0.894195 0.543683 0.745816 0.1115 Uiso
CE3 C 0.897264 0.521886 0.790958 0.1160 Uiso
CZ2 C 0.906125 0.554175 0.762602 0.1244 Uiso
CZ3 C 0.909066 0.532352 0.807638 0.1170 Uiso
CH2 C 0.91337 0.548305 0.79334 0.1163 Uiso
N N 0.901045 0.482277 0.754235 0.1313 Uiso
CA C 0.918488 0.481297 0.766759 0.1643 Uiso
C C 0.930227 0.472219 0.740203 0.1644 Uiso
O O 0.944245 0.478254 0.732075 0.1672 Uiso
CB C 0.918959 0.471951 0.802131 0.1918 Uiso
CG C 0.935256 0.474651 0.822173 0.2891 Uiso
CD C 0.936809 0.462135 0.852567 0.3642 Uiso
NE N 0.92022 0.458621 0.868347 0.4359 Uiso
CZ C 0.914032 0.443062 0.873404 0.4622 Uiso
NH1 N 0.923237 0.429554 0.863952 0.4671 Uiso
NH2 N 0.898588 0.441025 0.887118 0.4768 Uiso
N N 0.924141 0.458163 0.725482 0.1515 Uiso
CA C 0.93448 0.448321 0.701098 0.1555 Uiso
C C 0.934543 0.453719 0.662867 0.1505 Uiso
O O 0.946919 0.450358 0.644201 0.1629 Uiso
CB C 0.929527 0.429567 0.703269 0.1510 Uiso
CG C 0.934238 0.421787 0.738403 0.1627 Uiso
OD1 O 0.946919 0.426791 0.754553 0.1863 Uiso
ND2 N 0.924167 0.409666 0.750635 0.1570 Uiso
N N 0.921442 0.462861 0.651429 0.1422 Uiso
CA C 0.920003 0.46747 0.614336 0.1522 Uiso
C C 0.917724 0.48616 0.605043 0.1602 Uiso
O O 0.919685 0.490833 0.574278 0.1820 Uiso
CB C 0.905616 0.456966 0.598318 0.1487 Uiso
CG C 0.907449 0.438148 0.607452 0.1620 Uiso
CD C 0.892986 0.427746 0.593685 0.1624 Uiso
NE N 0.89347 0.425925 0.555268 0.1758 Uiso
CZ C 0.882558 0.4163 0.537291 0.1749 Uiso
NH1 N 0.870565 0.407808 0.55458 0.1762 Uiso
NH2 N 0.88359 0.415256 0.50229 0.1843 Uiso
N N 0.913752 0.496766 0.631122 0.1397 Uiso
CA C 0.911116 0.514858 0.624503 0.1360 Uiso
C C 0.924116 0.526088 0.64248 0.1411 Uiso
O O 0.930061 0.538514 0.626992 0.1624 Uiso
CB C 0.893546 0.520206 0.637185 0.1237 Uiso
SG S 0.876727 0.508059 0.616507 0.1397 Uiso
N N 0.92791 0.522014 0.675655 0.1408 Uiso
CA C 0.93998 0.531601 0.697021 0.1515 Uiso
C C 0.95662 0.534402 0.677402 0.1720 Uiso
O O 0.964463 0.522217 0.664508 0.1712 Uiso
CB C 0.943519 0.522065 0.731519 0.1468 Uiso
CG C 0.953348 0.532301 0.758842 0.1379 Uiso
CD C 0.955513 0.522166 0.79297 0.1425 Uiso
CE C 0.962694 0.533192 0.822861 0.1535 Uiso
NZ N 0.963267 0.52386 0.857412 0.1649 Uiso
N N 0.961624 0.550572 0.674913 0.2106 Uiso
CA C 0.977488 0.555257 0.65773 0.2305 Uiso
C C 0.977692 0.554633 0.617672 0.2501 Uiso
O O 0.99129 0.555957 0.601601 0.2807 Uiso
N N 0.963025 0.551679 0.601284 0.2290 Uiso
CA C 0.962032 0.551157 0.562814 0.2109 Uiso
C C 0.954749 0.568103 0.550397 0.2156 Uiso
O O 0.949936 0.578862 0.571895 0.1953 Uiso
CB C 0.950318 0.536566 0.549735 0.2140 Uiso
OG1 O 0.932952 0.540373 0.558366 0.1949 Uiso
CG2 C 0.955678 0.519505 0.566574 0.2004 Uiso
N N 0.953921 0.570624 0.515766 0.2247 Uiso
CA C 0.946982 0.586361 0.501787 0.2467 Uiso
C C 0.927719 0.584655 0.502449 0.2371 Uiso
O O 0.919901 0.580428 0.475576 0.2465 Uiso
CB C 0.953196 0.589188 0.46382 0.3074 Uiso
CG C 0.945773 0.60523 0.447087 0.3655 Uiso
OD1 O 0.942488 0.61786 0.466309 0.4047 Uiso
OD2 O 0.943163 0.605128 0.414442 0.4212 Uiso
N N 0.920029 0.58808 0.532975 0.2135 Uiso
CA C 0.901631 0.586259 0.536709 0.2119 Uiso
C C 0.891012 0.599297 0.51656 0.2223 Uiso
O O 0.875925 0.596394 0.509809 0.2102 Uiso
CB C 0.895991 0.585215 0.576078 0.2053 Uiso
CG1 C 0.90256 0.568778 0.592811 0.2012 Uiso
CG2 C 0.902306 0.600392 0.596386 0.2161 Uiso
N N 0.898792 0.613506 0.506314 0.2329 Uiso
CA C 0.889803 0.626632 0.486404 0.2439 Uiso
C C 0.883526 0.619261 0.4509 0.2342 Uiso
O O 0.870616 0.624939 0.436285 0.2346 Uiso
CB C 0.901682 0.641987 0.480606 0.2984 Uiso
CG C 0.893088 0.658246 0.4666 0.3892 Uiso
CD C 0.890414 0.658284 0.426304 0.4542 Uiso
OE1 O 0.901593 0.652911 0.406129 0.4904 Uiso
NE2 N 0.875645 0.664688 0.414495 0.4676 Uiso
N N 0.8924 0.60635 0.437477 0.2253 Uiso
CA C 0.887651 0.598138 0.404223 0.2102 Uiso
C C 0.869635 0.590856 0.405308 0.2190 Uiso
O O 0.861309 0.589315 0.377906 0.2133 Uiso
CB C 0.900167 0.584197 0.39538 0.2213 Uiso
N N 0.863524 0.586348 0.436815 0.2050 Uiso
CA C 0.846361 0.579269 0.440574 0.2124 Uiso
C C 0.832318 0.592129 0.433505 0.2172 Uiso
O O 0.817778 0.587443 0.426463 0.2196 Uiso
CB C 0.844057 0.571095 0.477085 0.1972 Uiso
CG C 0.854051 0.555257 0.479415 0.2026 Uiso
CD1 C 0.869572 0.55322 0.495168 0.1973 Uiso
CD2 C 0.850232 0.539469 0.462338 0.1997 Uiso
NE1 N 0.87576 0.537177 0.488628 0.1918 Uiso
CE2 C 0.864148 0.528443 0.468506 0.2005 Uiso
CE3 C 0.83643 0.533562 0.442163 0.2063 Uiso
CZ2 C 0.864708 0.511853 0.455136 0.1969 Uiso
CZ3 C 0.836991 0.517048 0.428739 0.2029 Uiso
CH2 C 0.851098 0.506417 0.435385 0.2109 Uiso
N N 0.836545 0.608438 0.435253 0.2180 Uiso
CA C 0.823762 0.621349 0.428448 0.2313 Uiso
C C 0.827696 0.63142 0.39493 0.2434 Uiso
O O 0.818096 0.642917 0.385107 0.2406 Uiso
CB C 0.821572 0.633304 0.460352 0.2376 Uiso
CG1 C 0.83848 0.641745 0.469645 0.2343 Uiso
CG2 C 0.814582 0.623284 0.492044 0.2389 Uiso
CD1 C 0.836761 0.655827 0.496306 0.3045 Uiso
N N 0.84123 0.626518 0.376396 0.2549 Uiso
CA C 0.845788 0.635545 0.344149 0.2955 Uiso
C C 0.831758 0.634208 0.316561 0.2905 Uiso
O O 0.823686 0.620954 0.312748 0.2954 Uiso
CB C 0.863066 0.629586 0.329375 0.3493 Uiso
CG C 0.864466 0.610985 0.317276 0.4296 Uiso
CD C 0.857311 0.608018 0.280315 0.4942 Uiso
NE N 0.860748 0.591008 0.266124 0.5426 Uiso
CZ C 0.855388 0.576417 0.280368 0.5560 Uiso
NH1 N 0.852918 0.575081 0.314999 0.5660 Uiso
NH2 N 0.852816 0.562985 0.260034 0.5820 Uiso
N N 0.828142 0.64857 0.29959 0.2965 Uiso
CA C 0.815206 0.649181 0.272293 0.2909 Uiso
C C 0.797267 0.651995 0.285398 0.2890 Uiso
O O 0.785668 0.655038 0.264165 0.3062 Uiso
N N 0.794657 0.651116 0.319976 0.2765 Uiso
CA C 0.777558 0.653344 0.334167 0.2713 Uiso
C C 0.772643 0.671844 0.339251 0.2847 Uiso
O O 0.783325 0.682488 0.347326 0.2960 Uiso
CB C 0.775635 0.643999 0.369407 0.2443 Uiso
SG S 0.782994 0.622087 0.369486 0.2386 Uiso
N N 0.756333 0.675574 0.334723 0.3104 Uiso
CA C 0.749827 0.692712 0.339939 0.3480 Uiso
C C 0.742774 0.691999 0.377588 0.3656 Uiso
O O 0.729418 0.684258 0.383518 0.3831 Uiso
CB C 0.735809 0.696187 0.312695 0.3687 Uiso
CG C 0.728183 0.71405 0.314284 0.4172 Uiso
CD C 0.717845 0.718036 0.281189 0.4414 Uiso
NE N 0.707481 0.703546 0.270042 0.4984 Uiso
CZ C 0.706793 0.697639 0.237 0.5217 Uiso
NH1 N 0.715833 0.705036 0.211451 0.5342 Uiso
NH2 N 0.697231 0.684117 0.229587 0.5447 Uiso
N N 0.752043 0.699243 0.403058 0.3859 Uiso
CA C 0.746886 0.698594 0.440521 0.4166 Uiso
C C 0.738292 0.714241 0.457122 0.4353 Uiso
O O 0.722555 0.713834 0.461226 0.4463 Uiso
CB C 0.761859 0.693144 0.464058 0.4143 Uiso
CG C 0.767194 0.674479 0.467712 0.4250 Uiso
CD1 C 0.751788 0.663097 0.466547 0.4207 Uiso
CD2 C 0.779633 0.669718 0.439224 0.4439 Uiso
OXT O 0.747255 0.726375 0.468056 0.4456 Uiso
N N 0.457526 0.628262 0.476476 0.1693 Uiso
CA C 0.469074 0.632718 0.506447 0.1810 Uiso
C C 0.469252 0.651918 0.512934 0.1810 Uiso
O O 0.469571 0.661938 0.487782 0.1730 Uiso
CB C 0.487268 0.626607 0.498319 0.1916 Uiso
CG C 0.500484 0.632973 0.523816 0.2130 Uiso
CD C 0.518054 0.626187 0.515237 0.2253 Uiso
CD C 0.518169 0.62662 0.513543 0.2173 Uiso
CE C 0.531283 0.634475 0.539066 0.2386 Uiso
CE C 0.532034 0.635876 0.534168 0.2295 Uiso
NZ N 0.548305 0.626263 0.536233 0.2372 Uiso
NZ N 0.53099 0.633724 0.573432 0.2186 Uiso
N N 0.46859 0.656973 0.546453 0.1769 Uiso
CA C 0.469227 0.67495 0.555772 0.1863 Uiso
C C 0.487293 0.678121 0.568904 0.1943 Uiso
O O 0.492692 0.670762 0.595274 0.2191 Uiso
CB C 0.455922 0.679852 0.584366 0.1782 Uiso
CG1 C 0.458124 0.698619 0.595115 0.2006 Uiso
CG2 C 0.437957 0.677115 0.56999 0.1883 Uiso
N N 0.497097 0.687861 0.548835 0.1785 Uiso
CA C 0.514655 0.691426 0.558658 0.1921 Uiso
C C 0.516373 0.704731 0.587358 0.2007 Uiso
O O 0.505156 0.715464 0.592335 0.2040 Uiso
CB C 0.524611 0.697995 0.526622 0.1835 Uiso
CG C 0.531919 0.684258 0.503614 0.1862 Uiso
CD1 C 0.521886 0.676313 0.47788 0.1754 Uiso
CD2 C 0.549005 0.679521 0.506977 0.1838 Uiso
CE1 C 0.528787 0.663874 0.455825 0.1918 Uiso
CE2 C 0.556084 0.667057 0.485055 0.1959 Uiso
CZ C 0.54595 0.659214 0.459346 0.2058 Uiso
N N 0.530302 0.703496 0.606871 0.2119 Uiso
CA C 0.534491 0.717004 0.631626 0.1969 Uiso
C C 0.543849 0.730296 0.610551 0.1854 Uiso
O O 0.55061 0.72626 0.582063 0.1743 Uiso
N N 0.544486 0.745957 0.62265 0.1852 Uiso
CA C 0.552787 0.759504 0.602846 0.1853 Uiso
C C 0.571223 0.755353 0.593156 0.1877 Uiso
O O 0.575895 0.755417 0.561941 0.1782 Uiso
CB C 0.55187 0.776068 0.623815 0.1883 Uiso
CG C 0.559688 0.791168 0.605309 0.1924 Uiso
CD C 0.557256 0.807287 0.626754 0.2280 Uiso
NE N 0.564844 0.806485 0.662153 0.2675 Uiso
CZ C 0.581319 0.809018 0.66946 0.2847 Uiso
NH1 N 0.592485 0.81252 0.643937 0.2699 Uiso
NH2 N 0.586641 0.808407 0.70282 0.2912 Uiso
N N 0.581663 0.751508 0.619818 0.1939 Uiso
CA C 0.599641 0.747345 0.613278 0.1977 Uiso
C C 0.602098 0.73036 0.594401 0.1828 Uiso
O O 0.614104 0.728132 0.574093 0.1891 Uiso
CB C 0.609826 0.747752 0.647909 0.2029 Uiso
SG S 0.610412 0.768785 0.667951 0.2204 Uiso
N N 0.590372 0.718468 0.600172 0.1833 Uiso
CA C 0.591416 0.701853 0.582963 0.1760 Uiso
C C 0.589213 0.704209 0.543169 0.1662 Uiso
O O 0.598024 0.696353 0.521989 0.1558 Uiso
CB C 0.577487 0.690089 0.596836 0.1938 Uiso
CG C 0.578353 0.672111 0.582063 0.2031 Uiso
CD C 0.562794 0.661544 0.591223 0.2181 Uiso
OE1 O 0.54954 0.669005 0.600834 0.2403 Uiso
OE2 O 0.563545 0.64568 0.587967 0.2296 Uiso
N N 0.577271 0.715171 0.533241 0.1602 Uiso
CA C 0.57424 0.718799 0.495936 0.1645 Uiso
C C 0.589404 0.728565 0.480157 0.1674 Uiso
O O 0.595146 0.724809 0.450715 0.1759 Uiso
CB C 0.557854 0.729151 0.491488 0.1612 Uiso
CG C 0.55392 0.73325 0.45286 0.1603 Uiso
CD1 C 0.551259 0.716699 0.431547 0.1643 Uiso
CD2 C 0.538272 0.744378 0.451271 0.1598 Uiso
N N 0.595668 0.741233 0.499616 0.1669 Uiso
CA C 0.610336 0.751291 0.48802 0.1716 Uiso
C C 0.625206 0.739387 0.479389 0.1643 Uiso
O O 0.632909 0.740584 0.451139 0.1726 Uiso
CB C 0.61553 0.764074 0.517144 0.1631 Uiso
N N 0.628861 0.727546 0.50335 0.1706 Uiso
CA C 0.642726 0.715476 0.497869 0.1785 Uiso
C C 0.639581 0.704323 0.465357 0.1791 Uiso
O O 0.650989 0.701497 0.443937 0.1858 Uiso
CB C 0.645094 0.70445 0.530752 0.1886 Uiso
N N 0.623984 0.69811 0.461412 0.1800 Uiso
CA C 0.619643 0.687364 0.431308 0.1717 Uiso
C C 0.621489 0.697091 0.396387 0.1815 Uiso
O O 0.627918 0.690191 0.370228 0.1779 Uiso
CB C 0.601474 0.680514 0.435253 0.1868 Uiso
N N 0.615836 0.713083 0.396016 0.1696 Uiso
CA C 0.616842 0.723434 0.364218 0.1681 Uiso
C C 0.635099 0.72719 0.354687 0.1781 Uiso
O O 0.639836 0.726502 0.323551 0.1923 Uiso
CB C 0.607063 0.739871 0.369302 0.1493 Uiso
CG C 0.588055 0.73721 0.36811 0.1667 Uiso
SD S 0.576672 0.756754 0.373776 0.1804 Uiso
CE C 0.557943 0.752717 0.347141 0.1774 Uiso
N N 0.645412 0.730577 0.381692 0.1916 Uiso
CA C 0.663428 0.734434 0.376741 0.2232 Uiso
C C 0.672391 0.71913 0.360909 0.2221 Uiso
O O 0.681737 0.720773 0.33483 0.2220 Uiso
CB C 0.671526 0.739247 0.412193 0.2449 Uiso
CG C 0.690114 0.744276 0.410181 0.3055 Uiso
CD C 0.694507 0.755493 0.441634 0.3447 Uiso
CE C 0.713083 0.760726 0.441925 0.3925 Uiso
NZ N 0.723816 0.746619 0.455004 0.4345 Uiso
N N 0.668572 0.704132 0.375391 0.2348 Uiso
CA C 0.676084 0.688192 0.363186 0.2449 Uiso
C C 0.67122 0.68497 0.324822 0.2385 Uiso
O O 0.681176 0.677777 0.304568 0.2315 Uiso
CB C 0.670087 0.673359 0.38622 0.2722 Uiso
CG C 0.683926 0.660398 0.393368 0.3560 Uiso
CD C 0.67863 0.64242 0.383413 0.4045 Uiso
NE N 0.661365 0.638104 0.394666 0.4486 Uiso
CZ C 0.652924 0.624532 0.382884 0.4653 Uiso
NH1 N 0.660334 0.613951 0.360141 0.4852 Uiso
NH2 N 0.636984 0.621718 0.393077 0.4870 Uiso
N N 0.655916 0.690573 0.314788 0.2263 Uiso
CA C 0.649817 0.688485 0.278648 0.2263 Uiso
C C 0.655241 0.702528 0.252966 0.2232 Uiso
O O 0.648888 0.703368 0.223048 0.2273 Uiso
CB C 0.630618 0.685785 0.278065 0.2297 Uiso
CG C 0.625461 0.667948 0.286749 0.2690 Uiso
ND1 N 0.62117 0.662868 0.320506 0.2741 Uiso
CD2 C 0.624315 0.653803 0.266231 0.2757 Uiso
CE1 C 0.617593 0.646354 0.320453 0.2829 Uiso
NE2 N 0.619426 0.640612 0.287703 0.2912 Uiso
N N 0.666853 0.713503 0.265039 0.2305 Uiso
CA C 0.673881 0.726986 0.242905 0.2335 Uiso
C C 0.663721 0.743067 0.236127 0.2530 Uiso
O O 0.667158 0.752272 0.210499 0.2501 Uiso
N N 0.651269 0.746606 0.258658 0.2480 Uiso
CA C 0.641032 0.761885 0.254184 0.2401 Uiso
C C 0.648875 0.778169 0.268984 0.2441 Uiso
O O 0.644075 0.792085 0.257838 0.2543 Uiso
CB C 0.623233 0.7593 0.269699 0.2276 Uiso
CG C 0.610858 0.748847 0.247433 0.2211 Uiso
CD1 C 0.593402 0.749496 0.265304 0.2394 Uiso
CD2 C 0.609533 0.756091 0.210154 0.2191 Uiso
N N 0.660932 0.77687 0.293554 0.2381 Uiso
CA C 0.66847 0.792378 0.308195 0.2515 Uiso
C C 0.67779 0.801876 0.27886 0.2462 Uiso
O O 0.689694 0.795255 0.262577 0.2498 Uiso
CB C 0.680514 0.788584 0.339172 0.2764 Uiso
CG C 0.68702 0.80483 0.35797 0.3122 Uiso
OD1 O 0.679368 0.818847 0.354369 0.3095 Uiso
OD2 O 0.700083 0.803467 0.376953 0.3510 Uiso
N N 0.671538 0.817103 0.271155 0.2354 Uiso
CA C 0.678655 0.828015 0.243885 0.2371 Uiso
C C 0.675472 0.821661 0.206183 0.2204 Uiso
O O 0.68329 0.827862 0.181004 0.2197 Uiso
CB C 0.697639 0.831108 0.25061 0.2951 Uiso
CG C 0.701038 0.837882 0.287676 0.3612 Uiso
OD1 O 0.695487 0.851912 0.297075 0.4034 Uiso
ND2 N 0.709658 0.827747 0.30936 0.4022 Uiso
N N 0.663644 0.80968 0.201788 0.1991 Uiso
CA C 0.659596 0.803493 0.166495 0.1823 Uiso
C C 0.651396 0.818364 0.146453 0.1953 Uiso
O O 0.639008 0.825863 0.15887 0.1806 Uiso
CB C 0.647437 0.788342 0.167819 0.1697 Uiso
CG C 0.645349 0.780359 0.131891 0.1859 Uiso
CD1 C 0.657266 0.768709 0.119183 0.1901 Uiso
CD2 C 0.631929 0.785044 0.109757 0.1835 Uiso
CE1 C 0.655929 0.762037 0.08532 0.2180 Uiso
CE2 C 0.630465 0.778538 0.0758946 0.1977 Uiso
CZ C 0.642471 0.767041 0.0638215 0.2261 Uiso
OH O 0.641172 0.76079 0.0299852 0.2661 Uiso
N N 0.658781 0.822769 0.115979 0.2018 Uiso
CA C 0.65309 0.837143 0.0938188 0.2216 Uiso
C C 0.653904 0.853708 0.114602 0.1964 Uiso
O O 0.644063 0.865447 0.107692 0.2080 Uiso
CB C 0.635048 0.83461 0.0791776 0.2504 Uiso
CG C 0.633393 0.82035 0.0528869 0.3347 Uiso
CD C 0.643184 0.823928 0.0193418 0.4148 Uiso
NE N 0.647246 0.808063 0.00109986 0.4937 Uiso
CZ C 0.64829 0.806357 -0.033822 0.5319 Uiso
NH1 N 0.644699 0.819446 -0.0550822 0.5430 Uiso
NH2 N 0.652147 0.791232 -0.0475365 0.5658 Uiso
N N 0.665325 0.854319 0.140522 0.1766 Uiso
CA C 0.667349 0.869419 0.162259 0.1796 Uiso
C C 0.655076 0.871443 0.193263 0.1734 Uiso
O O 0.655165 0.884697 0.211028 0.1793 Uiso
N N 0.644495 0.858635 0.200279 0.1652 Uiso
CA C 0.6324 0.859845 0.22972 0.1484 Uiso
C C 0.639173 0.850741 0.261994 0.1474 Uiso
O O 0.640689 0.835234 0.26218 0.1455 Uiso
CB C 0.615085 0.852613 0.219368 0.1386 Uiso
CG C 0.606249 0.863371 0.191965 0.1211 Uiso
CD1 C 0.596088 0.877045 0.202079 0.1223 Uiso
CD2 C 0.608018 0.859883 0.155852 0.1229 Uiso
CE1 C 0.587787 0.886976 0.176927 0.1211 Uiso
CE2 C 0.599768 0.869814 0.130488 0.1268 Uiso
CZ C 0.589621 0.883361 0.141396 0.1189 Uiso
OH O 0.580823 0.892999 0.117118 0.1349 Uiso
N N 0.642828 0.860519 0.289662 0.1568 Uiso
CA C 0.649639 0.853211 0.322068 0.1636 Uiso
C C 0.636691 0.841281 0.338616 0.1682 Uiso
O O 0.621336 0.842695 0.331891 0.1557 Uiso
CB C 0.654668 0.867153 0.347962 0.1679 Uiso
OG O 0.640638 0.877758 0.35654 0.2001 Uiso
N N 0.643031 0.829822 0.360723 0.1716 Uiso
CA C 0.632591 0.817167 0.378303 0.1644 Uiso
C C 0.616956 0.824233 0.39689 0.1539 Uiso
O O 0.603333 0.816428 0.395778 0.1463 Uiso
CB C 0.643617 0.807325 0.404462 0.1804 Uiso
CG C 0.637913 0.789717 0.416349 0.1801 Uiso
CD1 C 0.635036 0.778449 0.384366 0.1971 Uiso
CD2 C 0.651562 0.782141 0.440257 0.1859 Uiso
N N 0.618739 0.838862 0.414125 0.1460 Uiso
CA C 0.604313 0.846387 0.432579 0.1398 Uiso
C C 0.589073 0.849557 0.408645 0.1308 Uiso
O O 0.574584 0.848513 0.420215 0.1491 Uiso
N N 0.592345 0.853351 0.375073 0.1168 Uiso
CA C 0.578595 0.856496 0.349789 0.1234 Uiso
C C 0.568116 0.840441 0.34407 0.1265 Uiso
O O 0.55252 0.84095 0.343355 0.1307 Uiso
CB C 0.585699 0.862353 0.314179 0.1384 Uiso
CG C 0.59083 0.880763 0.314523 0.1406 Uiso
OD1 O 0.580084 0.891955 0.313093 0.1416 Uiso
ND2 N 0.607343 0.884048 0.317409 0.1581 Uiso
N N 0.576889 0.826143 0.340284 0.1178 Uiso
CA C 0.568625 0.809859 0.334247 0.1222 Uiso
C C 0.558618 0.803913 0.366177 0.1225 Uiso
O O 0.544626 0.797088 0.362471 0.1310 Uiso
CB C 0.581892 0.79663 0.323657 0.1203 Uiso
CG C 0.590244 0.801163 0.289794 0.1170 Uiso
CD1 C 0.606058 0.807987 0.285346 0.1325 Uiso
CD2 C 0.583178 0.799227 0.255031 0.1335 Uiso
NE1 N 0.609342 0.810368 0.249921 0.1298 Uiso
CE2 C 0.595528 0.80511 0.2307 0.1330 Uiso
CE3 C 0.567543 0.793052 0.242031 0.1458 Uiso
CZ2 C 0.592829 0.804931 0.194057 0.1555 Uiso
CZ3 C 0.564882 0.792887 0.205627 0.1663 Uiso
CH2 C 0.577461 0.798833 0.182063 0.1686 Uiso
N N 0.565697 0.806536 0.397578 0.1194 Uiso
CA C 0.557065 0.801316 0.429932 0.1183 Uiso
C C 0.541417 0.812405 0.435624 0.1137 Uiso
O O 0.527743 0.806128 0.444361 0.1269 Uiso
CB C 0.569147 0.802118 0.462153 0.1402 Uiso
CG1 C 0.559267 0.798018 0.496466 0.1522 Uiso
CG2 C 0.584018 0.789602 0.456752 0.1294 Uiso
N N 0.543327 0.828829 0.429402 0.1046 Uiso
CA C 0.529144 0.840505 0.433188 0.1153 Uiso
C C 0.514986 0.835768 0.406845 0.1165 Uiso
O O 0.499924 0.835641 0.416138 0.1212 Uiso
CB C 0.535242 0.858686 0.42641 0.1232 Uiso
SG S 0.518856 0.874677 0.432182 0.1411 Uiso
N N 0.519862 0.831707 0.374147 0.1141 Uiso
CA C 0.50741 0.826945 0.347274 0.1324 Uiso
C C 0.497772 0.810966 0.358976 0.1311 Uiso
O O 0.482086 0.81047 0.357387 0.1432 Uiso
CB C 0.516068 0.823953 0.311822 0.1340 Uiso
N N 0.507066 0.798273 0.372082 0.1211 Uiso
CA C 0.499134 0.782523 0.383996 0.1180 Uiso
C C 0.487128 0.785872 0.414973 0.1258 Uiso
O O 0.473288 0.7785 0.416958 0.1334 Uiso
CB C 0.512656 0.769536 0.394374 0.1098 Uiso
N N 0.492374 0.796847 0.439278 0.1213 Uiso
CA C 0.481781 0.800921 0.469804 0.1370 Uiso
C C 0.464529 0.807771 0.458552 0.1444 Uiso
O O 0.451173 0.801647 0.470202 0.1546 Uiso
CB C 0.490451 0.814289 0.493103 0.1579 Uiso
CG C 0.478967 0.82161 0.521883 0.1791 Uiso
CD C 0.473887 0.808191 0.548703 0.2202 Uiso
CE C 0.462313 0.815703 0.576768 0.2466 Uiso
NZ N 0.457793 0.802601 0.603349 0.2831 Uiso
N N 0.46486 0.820515 0.435598 0.1388 Uiso
CA C 0.44911 0.828295 0.424531 0.1412 Uiso
C C 0.439243 0.81914 0.396387 0.1408 Uiso
O O 0.424015 0.821814 0.393262 0.1659 Uiso
CB C 0.451899 0.847113 0.416323 0.1483 Uiso
CG C 0.457424 0.857082 0.448332 0.1394 Uiso
CD1 C 0.447977 0.856127 0.479759 0.1392 Uiso
CD2 C 0.472308 0.866618 0.447882 0.1524 Uiso
CE1 C 0.453426 0.864543 0.510498 0.1650 Uiso
CE2 C 0.477897 0.875072 0.478383 0.1812 Uiso
CZ C 0.468399 0.874041 0.509783 0.1622 Uiso
N N 0.447582 0.808127 0.376424 0.1194 Uiso
CA C 0.438555 0.798629 0.349365 0.1277 Uiso
C C 0.429554 0.783096 0.364536 0.1392 Uiso
O O 0.414823 0.779951 0.356249 0.1393 Uiso
CB C 0.450816 0.792594 0.32048 0.1229 Uiso
CG C 0.457029 0.806625 0.295513 0.1389 Uiso
CD C 0.443075 0.813436 0.271155 0.1560 Uiso
OE1 O 0.429261 0.805606 0.269514 0.1619 Uiso
OE2 O 0.445864 0.826512 0.253337 0.1692 Uiso
N N 0.438173 0.773814 0.387967 0.1302 Uiso
CA C 0.431222 0.757874 0.401947 0.1364 Uiso
C C 0.431807 0.755328 0.441793 0.1415 Uiso
O O 0.426613 0.74187 0.454766 0.1387 Uiso
CB C 0.441547 0.743347 0.386008 0.1336 Uiso
OG O 0.458366 0.743665 0.400093 0.1337 Uiso
N N 0.438797 0.767741 0.460829 0.1437 Uiso
CA C 0.441102 0.766621 0.499087 0.1654 Uiso
C C 0.452752 0.751432 0.507136 0.1496 Uiso
O O 0.450498 0.742506 0.533294 0.1498 Uiso
CB C 0.424079 0.765297 0.518917 0.2099 Uiso
CG C 0.425352 0.771752 0.556593 0.2439 Uiso
OD1 O 0.436671 0.781823 0.565383 0.2777 Uiso
ND2 N 0.413677 0.766201 0.579097 0.2832 Uiso
N N 0.464898 0.748554 0.483281 0.1368 Uiso
CA C 0.477592 0.735007 0.485928 0.1399 Uiso
C C 0.470233 0.71703 0.483334 0.1422 Uiso
O O 0.478483 0.704769 0.494215 0.1474 Uiso
CB C 0.48751 0.73637 0.520824 0.1500 Uiso
CG C 0.497059 0.752756 0.525722 0.1397 Uiso
CD1 C 0.504545 0.761006 0.49726 0.1360 Uiso
CD2 C 0.499134 0.759427 0.559585 0.1515 Uiso
CE1 C 0.51426 0.775661 0.502476 0.1522 Uiso
CE2 C 0.508734 0.773954 0.565198 0.1600 Uiso
CZ C 0.51631 0.782103 0.536445 0.1460 Uiso
N N 0.454929 0.715451 0.468798 0.1334 Uiso
CA C 0.446487 0.698912 0.465621 0.1339 Uiso
C C 0.448308 0.692253 0.427972 0.1250 Uiso
O O 0.441356 0.699689 0.403111 0.1312 Uiso
CB C 0.427619 0.700975 0.47502 0.1308 Uiso
CG C 0.417904 0.684245 0.475259 0.1460 Uiso
OD1 O 0.424881 0.670469 0.46864 0.1475 Uiso
ND2 N 0.401518 0.685416 0.483228 0.1855 Uiso
N N 0.457106 0.677917 0.423975 0.1274 Uiso
CA C 0.459805 0.670392 0.389185 0.1308 Uiso
C C 0.443419 0.664421 0.37187 0.1203 Uiso
O O 0.442693 0.662817 0.33994 0.1235 Uiso
CB C 0.471862 0.654936 0.390668 0.1343 Uiso
OG1 O 0.464338 0.641631 0.411372 0.1451 Uiso
CG2 C 0.48886 0.659927 0.406739 0.1443 Uiso
N N 0.430305 0.661327 0.393209 0.1225 Uiso
CA C 0.414174 0.654783 0.379468 0.1253 Uiso
C C 0.401034 0.668139 0.369328 0.1374 Uiso
O O 0.386876 0.663925 0.358473 0.1519 Uiso
CB C 0.406445 0.642255 0.406156 0.1386 Uiso
CG C 0.417598 0.626709 0.413411 0.1349 Uiso
CD C 0.407795 0.612525 0.431229 0.1553 Uiso
OE1 O 0.397851 0.603537 0.414231 0.1893 Uiso
NE2 N 0.409997 0.610858 0.465727 0.1553 Uiso
N N 0.405783 0.684245 0.371976 0.1337 Uiso
CA C 0.393993 0.697932 0.36345 0.1450 Uiso
C C 0.38871 0.698135 0.324531 0.1311 Uiso
O O 0.399201 0.695614 0.300755 0.1225 Uiso
CB C 0.401811 0.715094 0.373617 0.1411 Uiso
N N 0.372222 0.700376 0.318494 0.1230 Uiso
CA C 0.36541 0.70184 0.28299 0.1349 Uiso
C C 0.352449 0.7161 0.283864 0.1327 Uiso
O O 0.343918 0.718952 0.310604 0.1519 Uiso
CB C 0.356281 0.685543 0.270202 0.1494 Uiso
OG1 O 0.342989 0.681189 0.294666 0.1681 Uiso
CG2 C 0.36858 0.670762 0.266283 0.1473 Uiso
N N 0.351036 0.725255 0.254661 0.1375 Uiso
CA C 0.338647 0.738878 0.252039 0.1522 Uiso
C C 0.332893 0.740444 0.213861 0.1475 Uiso
O O 0.343371 0.741093 0.18998 0.1440 Uiso
CB C 0.346325 0.755519 0.26533 0.1909 Uiso
CG C 0.349177 0.755442 0.305468 0.2229 Uiso
OD1 O 0.363411 0.753176 0.318203 0.2591 Uiso
ND2 N 0.335464 0.757441 0.325351 0.2258 Uiso
N N 0.316137 0.740457 0.208301 0.1598 Uiso
CA C 0.308765 0.741768 0.17277 0.1776 Uiso
C C 0.307543 0.760344 0.161809 0.1858 Uiso
O O 0.303227 0.771268 0.183361 0.1988 Uiso
CB C 0.290775 0.73418 0.172188 0.2094 Uiso
CG C 0.283836 0.730564 0.13528 0.2314 Uiso
CD C 0.289858 0.713312 0.12371 0.2910 Uiso
NE N 0.286815 0.709785 0.0863261 0.3370 Uiso
CZ C 0.274325 0.699905 0.0740412 0.3282 Uiso
NH1 N 0.263401 0.692699 0.0962281 0.3320 Uiso
NH2 N 0.273791 0.695958 0.0398872 0.3146 Uiso
N N 0.311134 0.763756 0.128238 0.1940 Uiso
CA C 0.310242 0.780919 0.113755 0.2195 Uiso
C C 0.293767 0.78223 0.0929186 0.2261 Uiso
O O 0.286675 0.769307 0.0821429 0.2366 Uiso
CB C 0.325572 0.784229 0.0898474 0.2324 Uiso
CG C 0.342505 0.781988 0.109201 0.2392 Uiso
OD1 O 0.353989 0.773152 0.0966517 0.2750 Uiso
ND2 N 0.343995 0.789844 0.139966 0.2646 Uiso
N N 0.287885 0.797763 0.0861143 0.2624 Uiso
CA C 0.271843 0.800539 0.0667868 0.2837 Uiso
C C 0.272097 0.793791 0.0291379 0.2736 Uiso
O O 0.25892 0.788405 0.0155293 0.2956 Uiso
CB C 0.266724 0.819573 0.0658866 0.3035 Uiso
OG1 O 0.280055 0.829402 0.0500275 0.3435 Uiso
CG2 C 0.263694 0.825926 0.103059 0.3161 Uiso
N N 0.286981 0.793995 0.0124051 0.2570 Uiso
CA C 0.288445 0.78759 -0.0235493 0.2524 Uiso
C C 0.288089 0.768098 -0.0247407 0.2462 Uiso
O O 0.289642 0.760599 -0.0532818 0.2660 Uiso
CB C 0.3045 0.79444 -0.0416324 0.2517 Uiso
CG C 0.320657 0.788533 -0.0241847 0.2769 Uiso
OD1 O 0.319931 0.780091 0.00353566 0.3011 Uiso
OD2 O 0.334446 0.79239 -0.0379258 0.3062 Uiso
N N 0.286663 0.759886 0.00597145 0.2215 Uiso
CA C 0.28595 0.741462 0.00673925 0.1920 Uiso
C C 0.302756 0.732652 0.0142849 0.1890 Uiso
O O 0.303163 0.717182 0.020242 0.1967 Uiso
N N 0.316723 0.742163 0.0133318 0.1648 Uiso
CA C 0.333236 0.734753 0.0209833 0.1505 Uiso
C C 0.334382 0.732983 0.0613063 0.1407 Uiso
O O 0.323407 0.739336 0.0805279 0.1508 Uiso
CB C 0.347305 0.746313 0.0074541 0.1541 Uiso
OG O 0.346898 0.762088 0.0255107 0.1748 Uiso
N N 0.347407 0.724223 0.0741207 0.1293 Uiso
CA C 0.349482 0.721791 0.112193 0.1318 Uiso
C C 0.368186 0.724567 0.120824 0.1286 Uiso
O O 0.37911 0.721028 0.0985051 0.1307 Uiso
CB C 0.344249 0.703508 0.123154 0.1405 Uiso
OG1 O 0.326705 0.700618 0.113861 0.1312 Uiso
CG2 C 0.346567 0.70072 0.163027 0.1417 Uiso
N N 0.37156 0.731837 0.15196 0.1170 Uiso
CA C 0.388824 0.734995 0.164774 0.1273 Uiso
C C 0.392911 0.720506 0.189874 0.1216 Uiso
O O 0.382216 0.715731 0.211584 0.1179 Uiso
CB C 0.389779 0.751877 0.184155 0.1384 Uiso
CG C 0.387004 0.766748 0.160009 0.1738 Uiso
OD1 O 0.389537 0.765068 0.127788 0.1830 Uiso
OD2 O 0.382395 0.78046 0.173326 0.2647 Uiso
N N 0.408559 0.714101 0.187676 0.1237 Uiso
CA C 0.413919 0.699396 0.208222 0.1160 Uiso
C C 0.430127 0.701229 0.228529 0.1253 Uiso
O O 0.442846 0.707697 0.214999 0.1321 Uiso
CB C 0.417076 0.684385 0.183387 0.1165 Uiso
CG C 0.401569 0.678108 0.164457 0.1212 Uiso
CD1 C 0.396221 0.685645 0.132977 0.1246 Uiso
CD2 C 0.391944 0.664752 0.178304 0.1211 Uiso
CE1 C 0.381656 0.680107 0.115794 0.1226 Uiso
CE2 C 0.377416 0.659112 0.161333 0.1369 Uiso
CZ C 0.372438 0.666904 0.130144 0.1310 Uiso
OH O 0.358102 0.661454 0.113199 0.1424 Uiso
N N 0.429796 0.694558 0.260591 0.1273 Uiso
CA C 0.445049 0.693959 0.28164 0.1343 Uiso
C C 0.450778 0.709301 0.301867 0.1197 Uiso
O O 0.442642 0.722695 0.302714 0.1213 Uiso
N N 0.465916 0.70715 0.31635 0.1311 Uiso
CA C 0.473899 0.719652 0.338457 0.1436 Uiso
C C 0.476433 0.73679 0.319791 0.1348 Uiso
O O 0.475465 0.750107 0.33671 0.1417 Uiso
CB C 0.490426 0.711975 0.35474 0.1763 Uiso
CG1 C 0.495175 0.721575 0.388444 0.2052 Uiso
CG2 C 0.50466 0.711122 0.327099 0.1724 Uiso
CD1 C 0.506455 0.711682 0.412855 0.2457 Uiso
N N 0.478827 0.736484 0.284949 0.1272 Uiso
CA C 0.48108 0.752119 0.265119 0.1381 Uiso
C C 0.466006 0.7559 0.241555 0.1377 Uiso
O O 0.46696 0.766608 0.217912 0.1358 Uiso
CB C 0.497721 0.751801 0.24415 0.1672 Uiso
CG C 0.513547 0.754016 0.267343 0.1816 Uiso
CD1 C 0.529526 0.750935 0.245632 0.1910 Uiso
CD2 C 0.513394 0.771777 0.283758 0.1958 Uiso
N N 0.452153 0.746542 0.247062 0.1260 Uiso
CA C 0.436544 0.749458 0.227152 0.1254 Uiso
C C 0.439167 0.751342 0.1872 0.1241 Uiso
O O 0.433985 0.763985 0.171393 0.1408 Uiso
CB C 0.427466 0.765118 0.242376 0.1211 Uiso
CG C 0.419928 0.761859 0.279071 0.1299 Uiso
CD C 0.405287 0.749407 0.277589 0.1340 Uiso
OE1 O 0.390887 0.754347 0.270387 0.1299 Uiso
NE2 N 0.408992 0.733021 0.283281 0.1367 Uiso
N N 0.446869 0.738445 0.171208 0.1288 Uiso
CA C 0.45032 0.738356 0.133506 0.1397 Uiso
C C 0.433921 0.734485 0.113199 0.1512 Uiso
O O 0.424321 0.722632 0.121857 0.1360 Uiso
CB C 0.464872 0.726095 0.125458 0.1549 Uiso
CG1 C 0.481399 0.733849 0.139728 0.1386 Uiso
CG2 C 0.465916 0.722263 0.0859819 0.1688 Uiso
CD1 C 0.496422 0.722059 0.138219 0.1520 Uiso
N N 0.4307 0.745053 0.0866968 0.1559 Uiso
CA C 0.415065 0.744391 0.0658866 0.1686 Uiso
C C 0.414212 0.731162 0.0360217 0.1624 Uiso
O O 0.42604 0.729532 0.0145232 0.1755 Uiso
CB C 0.411398 0.762457 0.0525163 0.1681 Uiso
CG C 0.394388 0.763871 0.0349891 0.1579 Uiso
CG C 0.393229 0.76466 0.0393842 0.1857 Uiso
OD1 O 0.393319 0.763209 0.00284728 0.1703 Uiso
OD1 O 0.38447 0.752386 0.0311501 0.2087 Uiso
ND2 N 0.380956 0.765602 0.0557993 0.1479 Uiso
ND2 N 0.387818 0.780499 0.0359688 0.2042 Uiso
N N 0.399736 0.72225 0.0341154 0.1525 Uiso
CA C 0.39668 0.709034 0.00763944 0.1606 Uiso
C C 0.393408 0.715833 -0.0299035 0.1678 Uiso
O O 0.393713 0.70608 -0.0553999 0.1844 Uiso
CB C 0.38172 0.697855 0.0192359 0.1408 Uiso
OG O 0.366314 0.707302 0.0193683 0.1389 Uiso
N N 0.389957 0.732346 -0.0330807 0.1969 Uiso
CA C 0.386825 0.740329 -0.0675789 0.2401 Uiso
C C 0.40274 0.739476 -0.0905865 0.2418 Uiso
O O 0.401505 0.737324 -0.122887 0.2457 Uiso
CB C 0.381338 0.758982 -0.0628132 0.2752 Uiso
CG C 0.379861 0.769587 -0.0963583 0.3651 Uiso
CD C 0.364506 0.764724 -0.118757 0.4343 Uiso
NE N 0.348362 0.766506 -0.0996148 0.4868 Uiso
CZ C 0.334369 0.757594 -0.106975 0.5105 Uiso
NH1 N 0.334433 0.746224 -0.133213 0.5375 Uiso
NH2 N 0.320326 0.759975 -0.0880713 0.5081 Uiso
N N 0.417662 0.739871 -0.0738802 0.2229 Uiso
CA C 0.433463 0.739591 -0.0939225 0.2266 Uiso
C C 0.446768 0.726833 -0.083438 0.2006 Uiso
O O 0.455947 0.720276 -0.10589 0.2104 Uiso
CB C 0.442591 0.756792 -0.0906924 0.2708 Uiso
CG C 0.431744 0.771968 -0.0953787 0.3432 Uiso
CD1 C 0.424818 0.781836 -0.0691674 0.3688 Uiso
CD2 C 0.426358 0.779124 -0.128129 0.3807 Uiso
NE1 N 0.41537 0.79472 -0.083941 0.3982 Uiso
CE2 C 0.416071 0.793358 -0.120054 0.4047 Uiso
CE3 C 0.429159 0.774858 -0.163687 0.4112 Uiso
CZ2 C 0.408521 0.803467 -0.146398 0.4475 Uiso
CZ3 C 0.421673 0.784853 -0.189924 0.4467 Uiso
CH2 C 0.411462 0.799011 -0.181108 0.4567 Uiso
N N 0.447251 0.722199 -0.0492045 0.1881 Uiso
CA C 0.462797 0.713439 -0.0373962 0.1692 Uiso
C C 0.460645 0.694519 -0.0294005 0.1639 Uiso
O O 0.473492 0.685225 -0.0295329 0.1678 Uiso
CB C 0.469392 0.722122 -0.004566 0.1720 Uiso
CG C 0.471442 0.741106 -0.0114233 0.1662 Uiso
CD1 C 0.461257 0.753596 0.000385012 0.1674 Uiso
CD2 C 0.484645 0.748656 -0.0320481 0.1654 Uiso
NE1 N 0.467724 0.769231 -0.0127736 0.1772 Uiso
CE2 C 0.481577 0.766137 -0.0320481 0.1763 Uiso
CE3 C 0.498778 0.742226 -0.0507137 0.1863 Uiso
CZ2 C 0.492004 0.777825 -0.0502371 0.1764 Uiso
CZ3 C 0.509142 0.754029 -0.0687438 0.1783 Uiso
CH2 C 0.505844 0.771115 -0.0684791 0.1836 Uiso
N N 0.445583 0.688013 -0.0219872 0.1633 Uiso
CA C 0.443686 0.670074 -0.0141238 0.1549 Uiso
C C 0.426829 0.663861 -0.028818 0.1595 Uiso
O O 0.415485 0.674008 -0.0375021 0.1591 Uiso
CB C 0.44482 0.666993 0.0259079 0.1459 Uiso
SG S 0.428395 0.677777 0.0519603 0.1410 Uiso
N N 0.425467 0.647156 -0.0324982 0.1568 Uiso
CA C 0.410087 0.639441 -0.0462127 0.1687 Uiso
C C 0.399035 0.63184 -0.0169303 0.1527 Uiso
O O 0.405032 0.620954 0.00316499 0.1487 Uiso
CB C 0.414505 0.625397 -0.0727682 0.1833 Uiso
CG C 0.398691 0.617733 -0.0898187 0.2379 Uiso
OD1 O 0.386774 0.626925 -0.099456 0.2651 Uiso
ND2 N 0.398271 0.600914 -0.092784 0.2969 Uiso
N N 0.383197 0.63776 -0.0140444 0.1345 Uiso
CA C 0.37156 0.630592 0.0119815 0.1334 Uiso
C C 0.356421 0.621973 -0.00554561 0.1484 Uiso
O O 0.344542 0.61646 0.0121404 0.1629 Uiso
CB C 0.36569 0.64377 0.0390929 0.1384 Uiso
CG C 0.355555 0.65831 0.0231544 0.1254 Uiso
OD1 O 0.351634 0.658475 -0.00896102 0.1456 Uiso
OD2 O 0.351596 0.670087 0.0436468 0.1411 Uiso
N N 0.356969 0.620941 -0.0405734 0.1682 Uiso
CA C 0.343409 0.612869 -0.0603509 0.1873 Uiso
C C 0.326412 0.622087 -0.0610658 0.2126 Uiso
O O 0.314049 0.615123 -0.0750981 0.2449 Uiso
N N 0.325419 0.637569 -0.0469011 0.1858 Uiso
CA C 0.309249 0.646711 -0.0469541 0.2021 Uiso
C C 0.31065 0.665796 -0.0537055 0.2080 Uiso
O O 0.300006 0.675765 -0.0411823 0.2351 Uiso
CB C 0.299713 0.643693 -0.0123499 0.2028 Uiso
CG C 0.308294 0.651383 0.0194742 0.2124 Uiso
CD C 0.295842 0.652224 0.0494715 0.2328 Uiso
NE N 0.301444 0.663784 0.0771654 0.2449 Uiso
CZ C 0.295486 0.663517 0.110155 0.2663 Uiso
NH1 N 0.283581 0.652173 0.119103 0.2798 Uiso
NH2 N 0.301394 0.674518 0.134115 0.2381 Uiso
N N 0.323611 0.670991 -0.0733242 0.2020 Uiso
CA C 0.325852 0.688892 -0.0820083 0.1992 Uiso
C C 0.327634 0.689057 -0.122278 0.2311 Uiso
O O 0.341716 0.688434 -0.136469 0.2404 Uiso
CB C 0.342072 0.696327 -0.0645077 0.1899 Uiso
OG1 O 0.342212 0.692088 -0.0275207 0.1665 Uiso
CG2 C 0.342582 0.715604 -0.068585 0.1690 Uiso
N N 0.313247 0.688421 -0.141182 0.2617 Uiso
CA C 0.312687 0.688383 -0.179917 0.2875 Uiso
C C 0.324133 0.701662 -0.196676 0.3092 Uiso
O O 0.32454 0.716431 -0.185265 0.3247 Uiso
CB C 0.294111 0.69224 -0.187383 0.3026 Uiso
CG C 0.285351 0.682984 -0.157783 0.3033 Uiso
CD C 0.295944 0.687988 -0.126223 0.2717 Uiso
N N 0.333733 0.696098 -0.223178 0.3307 Uiso
CA C 0.345217 0.707519 -0.241712 0.3540 Uiso
C C 0.359375 0.714853 -0.218916 0.3620 Uiso
O O 0.364341 0.729532 -0.223761 0.3998 Uiso
N N 0.365334 0.705049 -0.19326 0.3451 Uiso
CA C 0.379021 0.710829 -0.170465 0.3369 Uiso
C C 0.395521 0.702401 -0.182538 0.3341 Uiso
O O 0.395407 0.689643 -0.201733 0.3298 Uiso
CB C 0.375392 0.706373 -0.131704 0.3383 Uiso
OG O 0.377111 0.688637 -0.125217 0.3403 Uiso
N N 0.409679 0.710027 -0.172212 0.3168 Uiso
CA C 0.426269 0.70333 -0.181426 0.3142 Uiso
C C 0.432622 0.693857 -0.149072 0.2894 Uiso
O O 0.42497 0.694749 -0.120319 0.2923 Uiso
CB C 0.438428 0.717832 -0.191089 0.3434 Uiso
CG C 0.433182 0.727623 -0.224237 0.4111 Uiso
CD C 0.443865 0.722479 -0.256379 0.4896 Uiso
NE N 0.460276 0.73143 -0.257332 0.5484 Uiso
CZ C 0.473225 0.727432 -0.278646 0.5798 Uiso
NH1 N 0.472015 0.714458 -0.301124 0.5775 Uiso
NH2 N 0.487497 0.736484 -0.277534 0.5959 Uiso
N N 0.446309 0.684385 -0.154049 0.2522 Uiso
CA C 0.454152 0.674632 -0.125747 0.2289 Uiso
C C 0.473123 0.677879 -0.130459 0.2151 Uiso
O O 0.483066 0.666191 -0.136972 0.2059 Uiso
CB C 0.449976 0.655712 -0.129797 0.2168 Uiso
CG C 0.457692 0.64489 -0.100727 0.2053 Uiso
OD1 O 0.465509 0.651383 -0.0759982 0.2135 Uiso
ND2 N 0.455769 0.628224 -0.103983 0.2076 Uiso
N N 0.477974 0.69401 -0.12715 0.2139 Uiso
CA C 0.495633 0.699205 -0.132074 0.2149 Uiso
C C 0.508556 0.690713 -0.107928 0.2073 Uiso
O O 0.523376 0.689032 -0.117804 0.2295 Uiso
CB C 0.497173 0.718596 -0.130751 0.2361 Uiso
CG C 0.487688 0.727228 -0.161224 0.2600 Uiso
CD1 C 0.488032 0.74653 -0.157306 0.2660 Uiso
CD2 C 0.495811 0.721715 -0.196146 0.2847 Uiso
N N 0.503234 0.685098 -0.0767131 0.1904 Uiso
CA C 0.515126 0.676427 -0.0533083 0.1871 Uiso
C C 0.514998 0.657266 -0.0592919 0.1983 Uiso
O O 0.52484 0.647984 -0.0429297 0.2025 Uiso
CB C 0.511573 0.680616 -0.0144945 0.1777 Uiso
SG S 0.517545 0.702401 -0.00422181 0.1852 Uiso
N N 0.503705 0.651358 -0.082379 0.2138 Uiso
CA C 0.50247 0.633291 -0.0907983 0.2447 Uiso
C C 0.500064 0.621947 -0.0590271 0.2314 Uiso
O O 0.509511 0.609661 -0.0535466 0.2192 Uiso
CB C 0.518054 0.627422 -0.111503 0.3143 Uiso
CG C 0.514438 0.626161 -0.150396 0.3945 Uiso
OD1 O 0.5041 0.61553 -0.161728 0.4514 Uiso
ND2 N 0.52223 0.637353 -0.171179 0.4258 Uiso
N N 0.487128 0.625919 -0.038164 0.2106 Uiso
CA C 0.483448 0.615976 -0.0066576 0.2206 Uiso
C C 0.464707 0.616765 0.00263547 0.2016 Uiso
O O 0.455667 0.628657 -0.0077696 0.1809 Uiso
CB C 0.492552 0.62294 0.0272846 0.2246 Uiso
CG1 C 0.490082 0.642216 0.0301705 0.2457 Uiso
CG2 C 0.51086 0.61702 0.0294292 0.2532 Uiso
CD1 C 0.49385 0.649397 0.066575 0.2764 Uiso
N N 0.458265 0.603231 0.0195801 0.1902 Uiso
CA C 0.4403 0.603804 0.0297998 0.1778 Uiso
C C 0.4403 0.616243 0.0612004 0.1539 Uiso
O O 0.452675 0.617083 0.081481 0.1439 Uiso
CB C 0.436633 0.585508 0.0415022 0.1872 Uiso
CG C 0.453846 0.578595 0.0522515 0.2220 Uiso
CD C 0.465611 0.586157 0.0249018 0.2067 Uiso
N N 0.426957 0.626391 0.0644305 0.1383 Uiso
CA C 0.426142 0.63869 0.0932363 0.1279 Uiso
C C 0.427313 0.630147 0.129429 0.1375 Uiso
O O 0.433819 0.637697 0.154925 0.1465 Uiso
CB C 0.409947 0.649295 0.0903505 0.1203 Uiso
SG S 0.40847 0.661378 0.0493391 0.1294 Uiso
N N 0.421482 0.614295 0.131679 0.1349 Uiso
CA C 0.422182 0.605026 0.165066 0.1598 Uiso
C C 0.440452 0.603511 0.178939 0.1597 Uiso
O O 0.443228 0.60318 0.211081 0.1726 Uiso
CB C 0.414288 0.587392 0.160962 0.1573 Uiso
OG O 0.42278 0.578124 0.134221 0.1924 Uiso
N N 0.452917 0.603155 0.155031 0.1621 Uiso
CA C 0.470907 0.602034 0.165648 0.1835 Uiso
C C 0.476013 0.617427 0.188312 0.1852 Uiso
O O 0.487624 0.616383 0.210578 0.2024 Uiso
CB C 0.48229 0.600863 0.133083 0.1824 Uiso
N N 0.467101 0.631598 0.183043 0.1614 Uiso
CA C 0.470411 0.647271 0.202291 0.1662 Uiso
C C 0.46365 0.6475 0.240205 0.1643 Uiso
O O 0.466451 0.659825 0.259373 0.1825 Uiso
CB C 0.462848 0.662257 0.181772 0.1605 Uiso
CG C 0.470143 0.66451 0.144626 0.1887 Uiso
CD1 C 0.46006 0.678057 0.12469 0.1923 Uiso
CD2 C 0.489 0.669043 0.147036 0.1812 Uiso
N N 0.455158 0.633915 0.251536 0.1625 Uiso
CA C 0.448015 0.633368 0.287041 0.1587 Uiso
C C 0.458086 0.622113 0.311796 0.1755 Uiso
O O 0.454127 0.620979 0.34354 0.1887 Uiso
CB C 0.429541 0.626964 0.285876 0.1673 Uiso
CG C 0.417624 0.63692 0.26128 0.1866 Uiso
CD1 C 0.40013 0.628924 0.262259 0.2109 Uiso
CD2 C 0.416478 0.655381 0.272902 0.1730 Uiso
N N 0.471098 0.61385 0.297181 0.1869 Uiso
CA C 0.48229 0.602378 0.316932 0.1891 Uiso
C C 0.49147 0.610743 0.34783 0.1887 Uiso
O O 0.494729 0.625945 0.347327 0.1891 Uiso
CB C 0.495607 0.594815 0.291833 0.1892 Uiso
OG O 0.507728 0.585164 0.310975 0.2401 Uiso
N N 0.495735 0.600672 0.374623 0.1968 Uiso
CA C 0.505156 0.607114 0.404885 0.2025 Uiso
C C 0.523198 0.611558 0.39313 0.2123 Uiso
O O 0.532034 0.621412 0.410313 0.2394 Uiso
CB C 0.505335 0.593758 0.434433 0.2021 Uiso
CB C 0.505271 0.594077 0.434936 0.2092 Uiso
OG O 0.510096 0.577614 0.421698 0.1836 Uiso
OG O 0.488299 0.592141 0.447856 0.2137 Uiso
N N 0.528481 0.604288 0.363397 0.2182 Uiso
CA C 0.545224 0.607433 0.347803 0.2238 Uiso
C C 0.542143 0.622495 0.323022 0.2110 Uiso
O O 0.532161 0.621209 0.297922 0.2125 Uiso
CB C 0.550864 0.591887 0.32641 0.2494 Uiso
CG C 0.569147 0.593351 0.312908 0.3024 Uiso
OD1 O 0.574801 0.607573 0.304621 0.2984 Uiso
OD2 O 0.57806 0.580237 0.31124 0.3499 Uiso
N N 0.550699 0.636716 0.329773 0.1959 Uiso
CA C 0.548 0.652007 0.308327 0.1748 Uiso
C C 0.55746 0.652784 0.273458 0.1692 Uiso
O O 0.555753 0.665172 0.253946 0.1596 Uiso
CB C 0.551794 0.668457 0.329164 0.1782 Uiso
CG1 C 0.570803 0.66973 0.338219 0.1748 Uiso
CG2 C 0.540577 0.669208 0.362471 0.1873 Uiso
CD1 C 0.575692 0.686295 0.355534 0.1983 Uiso
N N 0.567403 0.639759 0.265224 0.1671 Uiso
CA C 0.577181 0.639657 0.232527 0.1714 Uiso
C C 0.567314 0.645068 0.199299 0.1665 Uiso
O O 0.573133 0.656133 0.179522 0.1693 Uiso
CB C 0.585495 0.622151 0.226755 0.1869 Uiso
OG1 O 0.59591 0.618178 0.25654 0.2149 Uiso
CG2 C 0.59661 0.622456 0.194348 0.2106 Uiso
N N 0.552456 0.637544 0.193104 0.1484 Uiso
CA C 0.542627 0.641745 0.161412 0.1595 Uiso
C C 0.537317 0.660283 0.162127 0.1536 Uiso
O O 0.538336 0.668979 0.135042 0.1749 Uiso
CB C 0.526992 0.630185 0.158129 0.1595 Uiso
N N 0.531359 0.666229 0.192707 0.1382 Uiso
CA C 0.52605 0.684003 0.196307 0.1431 Uiso
C C 0.540857 0.696226 0.188841 0.1455 Uiso
O O 0.53896 0.708932 0.169911 0.1496 Uiso
CB C 0.518589 0.687275 0.233215 0.1397 Uiso
OG O 0.501413 0.681787 0.23483 0.1551 Uiso
N N 0.555664 0.69219 0.203377 0.1481 Uiso
CA C 0.570573 0.702821 0.198002 0.1591 Uiso
C C 0.576265 0.702872 0.15932 0.1667 Uiso
O O 0.579524 0.716444 0.144441 0.1648 Uiso
CB C 0.585292 0.697282 0.222413 0.1790 Uiso
CG1 C 0.601869 0.706742 0.212378 0.1904 Uiso
CG2 C 0.580466 0.700924 0.260618 0.1855 Uiso
N N 0.577309 0.687912 0.142826 0.1559 Uiso
CA C 0.582669 0.68688 0.105812 0.1823 Uiso
C C 0.570866 0.696735 0.0815869 0.1771 Uiso
O O 0.576634 0.705214 0.0569642 0.1830 Uiso
CB C 0.58384 0.668419 0.0930775 0.2205 Uiso
CG C 0.598164 0.658666 0.110896 0.2843 Uiso
OD1 O 0.609623 0.666254 0.126755 0.2902 Uiso
ND2 N 0.597527 0.641682 0.108434 0.3141 Uiso
N N 0.554327 0.695564 0.0884177 0.1577 Uiso
CA C 0.542028 0.704667 0.0669722 0.1473 Uiso
C C 0.543123 0.72379 0.0743854 0.1421 Uiso
O O 0.542359 0.734129 0.0499746 0.1432 Uiso
CB C 0.524178 0.697906 0.0742795 0.1546 Uiso
SG S 0.507907 0.706271 0.0449176 0.1771 Uiso
N N 0.545364 0.728463 0.107983 0.1401 Uiso
CA C 0.546803 0.746364 0.118256 0.1382 Uiso
C C 0.56203 0.75464 0.0993523 0.1473 Uiso
O O 0.561343 0.769447 0.0889472 0.1532 Uiso
CB C 0.548674 0.747943 0.158129 0.1301 Uiso
N N 0.575794 0.745066 0.0947984 0.1525 Uiso
CA C 0.59069 0.751763 0.076477 0.1627 Uiso
C C 0.586132 0.756473 0.0385105 0.1691 Uiso
O O 0.592167 0.76918 0.0249812 0.1950 Uiso
CB C 0.605154 0.738661 0.0767418 0.1750 Uiso
CG C 0.613468 0.736713 0.112511 0.1779 Uiso
CD C 0.627307 0.723294 0.111875 0.2066 Uiso
CE C 0.634985 0.721486 0.148783 0.2325 Uiso
NZ N 0.646507 0.706564 0.15204 0.2398 Uiso
N N 0.575564 0.746211 0.0211687 0.1747 Uiso
CA C 0.570599 0.750095 -0.0153153 0.2006 Uiso
C C 0.559229 0.765819 -0.0160301 0.1863 Uiso
O O 0.560935 0.776832 -0.038773 0.1844 Uiso
CB C 0.561215 0.735096 -0.0325776 0.2380 Uiso
CG C 0.572114 0.719207 -0.0377404 0.3271 Uiso
CD C 0.563494 0.706373 -0.0622572 0.3739 Uiso
CE C 0.574266 0.69014 -0.0664934 0.4154 Uiso
NZ N 0.57615 0.680081 -0.0330277 0.4397 Uiso
N N 0.547529 0.766761 0.009228 0.1603 Uiso
CA C 0.535739 0.781123 0.0112931 0.1578 Uiso
C C 0.545224 0.797929 0.0164295 0.1465 Uiso
O O 0.54278 0.80977 -0.00363934 0.1474 Uiso
CB C 0.522421 0.778512 0.0418464 0.1617 Uiso
CG1 C 0.511357 0.762852 0.0343802 0.1487 Uiso
CG2 C 0.511319 0.7943 0.046771 0.1367 Uiso
CD1 C 0.499924 0.758141 0.0648011 0.1435 Uiso
N N 0.556594 0.798629 0.04227 0.1558 Uiso
CA C 0.565875 0.814213 0.0500275 0.1662 Uiso
C C 0.578124 0.819662 0.0203744 0.2080 Uiso
O O 0.583827 0.83433 0.0193683 0.2050 Uiso
CB C 0.575157 0.812863 0.0859819 0.1601 Uiso
CG1 C 0.590626 0.801252 0.0831755 0.1570 Uiso
CG2 C 0.579919 0.830281 0.0994582 0.1759 Uiso
N N 0.581994 0.807923 -0.00369229 0.2211 Uiso
CA C 0.593186 0.811565 -0.0336366 0.2660 Uiso
C C 0.582669 0.81709 -0.0657256 0.2962 Uiso
O O 0.589633 0.822642 -0.0924928 0.3195 Uiso
CB C 0.603218 0.795624 -0.0433004 0.2363 Uiso
OG O 0.614117 0.790773 -0.0153682 0.2662 Uiso
N N 0.565875 0.815715 -0.0620719 0.3359 Uiso
CA C 0.553385 0.81965 -0.089554 0.3658 Uiso
C C 0.552787 0.838035 -0.102607 0.3724 Uiso
O O 0.544193 0.841816 -0.128791 0.3886 Uiso
CB C 0.535815 0.814468 -0.0760777 0.3979 Uiso
CG C 0.522828 0.813169 -0.105069 0.4637 Uiso
OD1 O 0.526241 0.804257 -0.131677 0.4884 Uiso
OD2 O 0.508951 0.820757 -0.10078 0.5027 Uiso
N N 0.561406 0.849608 -0.0842588 0.3673 Uiso
CA C 0.561228 0.867293 -0.0959347 0.3511 Uiso
C C 0.554264 0.880292 -0.0698823 0.3402 Uiso
O O 0.560311 0.894883 -0.0695646 0.3432 Uiso
N N 0.541697 0.875428 -0.0483044 0.3047 Uiso
CA C 0.534516 0.887269 -0.0223579 0.2714 Uiso
C C 0.541634 0.884659 0.014735 0.2159 Uiso
O O 0.536261 0.893024 0.0399402 0.1964 Uiso
CB C 0.515215 0.885983 -0.0218548 0.3312 Uiso
CG C 0.507639 0.888963 -0.0579151 0.4025 Uiso
OD1 O 0.50932 0.902828 -0.0728476 0.4319 Uiso
ND2 N 0.499834 0.87576 -0.0730329 0.4288 Uiso
N N 0.553882 0.873188 0.0178856 0.1817 Uiso
CA C 0.561597 0.86989 0.0519603 0.1695 Uiso
C C 0.548649 0.863562 0.078754 0.1593 Uiso
O O 0.536554 0.854701 0.0696198 0.1698 Uiso
N N 0.550686 0.868833 0.111875 0.1453 Uiso
CA C 0.539113 0.863091 0.139543 0.1324 Uiso
C C 0.521874 0.871685 0.139278 0.1363 Uiso
O O 0.510708 0.86728 0.160194 0.1215 Uiso
CB C 0.547478 0.864263 0.175841 0.1203 Uiso
CG C 0.560515 0.850168 0.18156 0.1264 Uiso
SD S 0.566741 0.847838 0.226914 0.1517 Uiso
CE C 0.548509 0.836354 0.243991 0.1587 Uiso
N N 0.519658 0.883972 0.11545 0.1417 Uiso
CA C 0.503349 0.892795 0.112326 0.1477 Uiso
C C 0.489649 0.880241 0.10065 0.1435 Uiso
O O 0.474498 0.883984 0.10388 0.1529 Uiso
CB C 0.504494 0.907895 0.0869086 0.1458 Uiso
CG C 0.515673 0.922066 0.101312 0.1560 Uiso
OD1 O 0.511764 0.929934 0.128688 0.1634 Uiso
ND2 N 0.529882 0.925134 0.0835726 0.1693 Uiso
N N 0.495136 0.865345 0.0878088 0.1455 Uiso
CA C 0.483474 0.851836 0.0769271 0.1484 Uiso
C C 0.472894 0.845865 0.108831 0.1567 Uiso
O O 0.45899 0.838849 0.104568 0.1896 Uiso
CB C 0.493367 0.837054 0.0614387 0.1583 Uiso
N N 0.479654 0.84836 0.140708 0.1340 Uiso
CA C 0.470793 0.843662 0.173273 0.1364 Uiso
C C 0.462593 0.859577 0.188285 0.1450 Uiso
O O 0.471289 0.870845 0.202185 0.1336 Uiso
CB C 0.482965 0.835768 0.200199 0.1350 Uiso
CG C 0.487714 0.81802 0.190324 0.1339 Uiso
CD1 C 0.478419 0.803607 0.19681 0.1358 Uiso
CD2 C 0.502725 0.812622 0.171976 0.1217 Uiso
NE1 N 0.486797 0.789666 0.183837 0.1346 Uiso
CE2 C 0.501757 0.794771 0.168534 0.1346 Uiso
CE3 C 0.516921 0.821127 0.158076 0.1283 Uiso
CZ2 C 0.514438 0.785159 0.151589 0.1192 Uiso
CZ3 C 0.529538 0.811552 0.141184 0.1279 Uiso
CH2 C 0.528163 0.793753 0.138246 0.1158 Uiso
N N 0.445736 0.860239 0.185929 0.1534 Uiso
CA C 0.436136 0.874906 0.19824 0.1584 Uiso
C C 0.43937 0.87935 0.237213 0.1517 Uiso
O O 0.44184 0.89431 0.24595 0.1600 Uiso
CB C 0.416707 0.872233 0.192389 0.1743 Uiso
CB C 0.416873 0.872436 0.191701 0.1758 Uiso
CG1 C 0.406611 0.887358 0.206845 0.1899 Uiso
CG1 C 0.409857 0.858444 0.215529 0.1706 Uiso
CG2 C 0.412964 0.869725 0.153099 0.1736 Uiso
CG2 C 0.407438 0.889255 0.196599 0.1910 Uiso
N N 0.440274 0.866592 0.260273 0.1550 Uiso
CA C 0.443241 0.870132 0.29779 0.1539 Uiso
C C 0.461053 0.877364 0.303615 0.1472 Uiso
O O 0.463714 0.887638 0.327311 0.1532 Uiso
CB C 0.440516 0.854255 0.320215 0.1617 Uiso
N N 0.473326 0.871774 0.282407 0.1406 Uiso
CA C 0.490502 0.878471 0.286008 0.1239 Uiso
C C 0.490145 0.897264 0.275841 0.1335 Uiso
O O 0.497021 0.908124 0.294719 0.1246 Uiso
CB C 0.503183 0.86919 0.262021 0.1083 Uiso
CG C 0.520448 0.877173 0.264245 0.1089 Uiso
CD1 C 0.532263 0.87483 0.29043 0.1294 Uiso
CD2 C 0.527539 0.889599 0.240575 0.1194 Uiso
NE1 N 0.546179 0.885079 0.284631 0.1210 Uiso
CE2 C 0.543683 0.894195 0.254184 0.1115 Uiso
CE3 C 0.521886 0.897264 0.209042 0.1160 Uiso
CZ2 C 0.554175 0.906125 0.237398 0.1244 Uiso
CZ3 C 0.532352 0.909066 0.192362 0.1170 Uiso
CH2 C 0.548305 0.91337 0.20666 0.1163 Uiso
N N 0.482277 0.901045 0.245765 0.1313 Uiso
CA C 0.481297 0.918488 0.233241 0.1643 Uiso
C C 0.472219 0.930227 0.259797 0.1644 Uiso
O O 0.478254 0.944245 0.267925 0.1672 Uiso
CB C 0.471951 0.918959 0.197869 0.1918 Uiso
CG C 0.474651 0.935256 0.177827 0.2891 Uiso
CD C 0.462135 0.936809 0.147433 0.3642 Uiso
NE N 0.458621 0.92022 0.131653 0.4359 Uiso
CZ C 0.443062 0.914032 0.126596 0.4622 Uiso
NH1 N 0.429554 0.923237 0.136048 0.4671 Uiso
NH2 N 0.441025 0.898588 0.112882 0.4768 Uiso
N N 0.458163 0.924141 0.274518 0.1515 Uiso
CA C 0.448321 0.93448 0.298902 0.1555 Uiso
C C 0.453719 0.934543 0.337133 0.1505 Uiso
O O 0.450358 0.946919 0.355799 0.1629 Uiso
CB C 0.429567 0.929527 0.296731 0.1510 Uiso
CG C 0.421787 0.934238 0.261597 0.1627 Uiso
OD1 O 0.426791 0.946919 0.245447 0.1863 Uiso
ND2 N 0.409666 0.924167 0.249365 0.1570 Uiso
N N 0.462861 0.921442 0.348571 0.1422 Uiso
CA C 0.46747 0.920003 0.385664 0.1522 Uiso
C C 0.48616 0.917724 0.394957 0.1602 Uiso
O O 0.490833 0.919685 0.425722 0.1820 Uiso
CB C 0.456966 0.905616 0.401682 0.1487 Uiso
CG C 0.438148 0.907449 0.392548 0.1620 Uiso
CD C 0.427746 0.892986 0.406315 0.1624 Uiso
NE N 0.425925 0.89347 0.444732 0.1758 Uiso
CZ C 0.4163 0.882558 0.462709 0.1749 Uiso
NH1 N 0.407808 0.870565 0.44542 0.1762 Uiso
NH2 N 0.415256 0.88359 0.49771 0.1843 Uiso
N N 0.496766 0.913752 0.368878 0.1397 Uiso
CA C 0.514858 0.911116 0.375497 0.1360 Uiso
C C 0.526088 0.924116 0.35752 0.1411 Uiso
O O 0.538514 0.930061 0.373008 0.1624 Uiso
CB C 0.520206 0.893546 0.362815 0.1237 Uiso
SG S 0.508059 0.876727 0.383493 0.1397 Uiso
N N 0.522014 0.92791 0.324345 0.1408 Uiso
CA C 0.531601 0.93998 0.302979 0.1515 Uiso
C C 0.534402 0.95662 0.322598 0.1720 Uiso
O O 0.522217 0.964463 0.335492 0.1712 Uiso
CB C 0.522065 0.943519 0.268481 0.1468 Uiso
CG C 0.532301 0.953348 0.241158 0.1379 Uiso
CD C 0.522166 0.955513 0.20703 0.1425 Uiso
CE C 0.533192 0.962694 0.177139 0.1535 Uiso
NZ N 0.52386 0.963267 0.142588 0.1649 Uiso
N N 0.550572 0.961624 0.325087 0.2106 Uiso
CA C 0.555257 0.977488 0.34227 0.2305 Uiso
C C 0.554633 0.977692 0.382328 0.2501 Uiso
O O 0.555957 0.99129 0.398399 0.2807 Uiso
N N 0.551679 0.963025 0.398716 0.2290 Uiso
CA C 0.551157 0.962032 0.437186 0.2109 Uiso
C C 0.568103 0.954749 0.449603 0.2156 Uiso
O O 0.578862 0.949936 0.428105 0.1953 Uiso
CB C 0.536566 0.950318 0.450265 0.2140 Uiso
OG1 O 0.540373 0.932952 0.441634 0.1949 Uiso
CG2 C 0.519505 0.955678 0.433426 0.2004 Uiso
N N 0.570624 0.953921 0.484234 0.2247 Uiso
CA C 0.586361 0.946982 0.498213 0.2467 Uiso
C C 0.584655 0.927719 0.497551 0.2371 Uiso
O O 0.580428 0.919901 0.524424 0.2465 Uiso
CB C 0.589188 0.953196 0.53618 0.3074 Uiso
CG C 0.60523 0.945773 0.552913 0.3655 Uiso
OD1 O 0.61786 0.942488 0.533691 0.4047 Uiso
OD2 O 0.605128 0.943163 0.585558 0.4212 Uiso
N N 0.58808 0.920029 0.467025 0.2135 Uiso
CA C 0.586259 0.901631 0.463291 0.2119 Uiso
C C 0.599297 0.891012 0.48344 0.2223 Uiso
O O 0.596394 0.875925 0.490191 0.2102 Uiso
CB C 0.585215 0.895991 0.423922 0.2053 Uiso
CG1 C 0.568778 0.90256 0.407189 0.2012 Uiso
CG2 C 0.600392 0.902306 0.403614 0.2161 Uiso
N N 0.613506 0.898792 0.493686 0.2329 Uiso
CA C 0.626632 0.889803 0.513596 0.2439 Uiso
C C 0.619261 0.883526 0.5491 0.2342 Uiso
O O 0.624939 0.870616 0.563715 0.2346 Uiso
CB C 0.641987 0.901682 0.519394 0.2984 Uiso
CG C 0.658246 0.893088 0.5334 0.3892 Uiso
CD C 0.658284 0.890414 0.573696 0.4542 Uiso
OE1 O 0.652911 0.901593 0.593871 0.4904 Uiso
NE2 N 0.664688 0.875645 0.585505 0.4676 Uiso
N N 0.60635 0.8924 0.562523 0.2253 Uiso
CA C 0.598138 0.887651 0.595777 0.2102 Uiso
C C 0.590856 0.869635 0.594692 0.2190 Uiso
O O 0.589315 0.861309 0.622094 0.2133 Uiso
CB C 0.584197 0.900167 0.60462 0.2213 Uiso
N N 0.586348 0.863524 0.563185 0.2050 Uiso
CA C 0.579269 0.846361 0.559426 0.2124 Uiso
C C 0.592129 0.832318 0.566495 0.2172 Uiso
O O 0.587443 0.817778 0.573537 0.2196 Uiso
CB C 0.571095 0.844057 0.522915 0.1972 Uiso
CG C 0.555257 0.854051 0.520585 0.2026 Uiso
CD1 C 0.55322 0.869572 0.504832 0.1973 Uiso
CD2 C 0.539469 0.850232 0.537662 0.1997 Uiso
NE1 N 0.537177 0.87576 0.511372 0.1918 Uiso
CE2 C 0.528443 0.864148 0.531494 0.2005 Uiso
CE3 C 0.533562 0.83643 0.557837 0.2063 Uiso
CZ2 C 0.511853 0.864708 0.544864 0.1969 Uiso
CZ3 C 0.517048 0.836991 0.571261 0.2029 Uiso
CH2 C 0.506417 0.851098 0.564615 0.2109 Uiso
N N 0.608438 0.836545 0.564747 0.2180 Uiso
CA C 0.621349 0.823762 0.571552 0.2313 Uiso
C C 0.63142 0.827696 0.60507 0.2434 Uiso
O O 0.642917 0.818096 0.614893 0.2406 Uiso
CB C 0.633304 0.821572 0.539648 0.2376 Uiso
CG1 C 0.641745 0.83848 0.530355 0.2343 Uiso
CG2 C 0.623284 0.814582 0.507956 0.2389 Uiso
CD1 C 0.655827 0.836761 0.503694 0.3045 Uiso
N N 0.626518 0.84123 0.623604 0.2549 Uiso
CA C 0.635545 0.845788 0.655851 0.2955 Uiso
C C 0.634208 0.831758 0.683439 0.2905 Uiso
O O 0.620954 0.823686 0.687252 0.2954 Uiso
CB C 0.629586 0.863066 0.670625 0.3493 Uiso
CG C 0.610985 0.864466 0.682724 0.4296 Uiso
CD C 0.608018 0.857311 0.719685 0.4942 Uiso
NE N 0.591008 0.860748 0.733876 0.5426 Uiso
CZ C 0.576417 0.855388 0.719632 0.5560 Uiso
NH1 N 0.575081 0.852918 0.685001 0.5660 Uiso
NH2 N 0.562985 0.852816 0.739966 0.5820 Uiso
N N 0.64857 0.828142 0.70041 0.2965 Uiso
CA C 0.649181 0.815206 0.727707 0.2909 Uiso
C C 0.651995 0.797267 0.714602 0.2890 Uiso
O O 0.655038 0.785668 0.735835 0.3062 Uiso
N N 0.651116 0.794657 0.680024 0.2765 Uiso
CA C 0.653344 0.777558 0.665833 0.2713 Uiso
C C 0.671844 0.772643 0.660749 0.2847 Uiso
O O 0.682488 0.783325 0.652674 0.2960 Uiso
CB C 0.643999 0.775635 0.630593 0.2443 Uiso
SG S 0.622087 0.782994 0.630514 0.2386 Uiso
N N 0.675574 0.756333 0.665277 0.3104 Uiso
CA C 0.692712 0.749827 0.660061 0.3480 Uiso
C C 0.691999 0.742774 0.622412 0.3656 Uiso
O O 0.684258 0.729418 0.616482 0.3831 Uiso
CB C 0.696187 0.735809 0.687305 0.3687 Uiso
CG C 0.71405 0.728183 0.685716 0.4172 Uiso
CD C 0.718036 0.717845 0.718811 0.4414 Uiso
NE N 0.703546 0.707481 0.729958 0.4984 Uiso
CZ C 0.697639 0.706793 0.763 0.5217 Uiso
NH1 N 0.705036 0.715833 0.788549 0.5342 Uiso
NH2 N 0.684117 0.697231 0.770413 0.5447 Uiso
N N 0.699243 0.752043 0.596942 0.3859 Uiso
CA C 0.698594 0.746886 0.559479 0.4166 Uiso
C C 0.714241 0.738292 0.542878 0.4353 Uiso
O O 0.713834 0.722555 0.538774 0.4463 Uiso
CB C 0.693144 0.761859 0.535942 0.4143 Uiso
CG C 0.674479 0.767194 0.532288 0.4250 Uiso
CD1 C 0.663097 0.751788 0.533453 0.4207 Uiso
CD2 C 0.669718 0.779633 0.560776 0.4439 Uiso
OXT O 0.726375 0.747255 0.531944 0.4456 Uiso
N N 0.542474 0.371738 0.976476 0.1693 Uiso
CA C 0.530926 0.367282 1.00645 0.1810 Uiso
C C 0.530748 0.348082 1.01293 0.1810 Uiso
O O 0.530429 0.338062 0.987782 0.1730 Uiso
CB C 0.512732 0.373393 0.998319 0.1916 Uiso
CG C 0.499516 0.367027 1.02382 0.2130 Uiso
CD C 0.481946 0.373813 1.01524 0.2253 Uiso
CD C 0.481831 0.37338 1.01354 0.2173 Uiso
CE C 0.468717 0.365525 1.03907 0.2386 Uiso
CE C 0.467966 0.364124 1.03417 0.2295 Uiso
NZ N 0.451695 0.373737 1.03623 0.2372 Uiso
NZ N 0.46901 0.366276 1.07343 0.2186 Uiso
N N 0.53141 0.343027 1.04645 0.1769 Uiso
CA C 0.530773 0.32505 1.05577 0.1863 Uiso
C C 0.512707 0.321879 1.0689 0.1943 Uiso
O O 0.507308 0.329238 1.09527 0.2191 Uiso
CB C 0.544078 0.320148 1.08437 0.1782 Uiso
CG1 C 0.541876 0.301381 1.09512 0.2006 Uiso
CG2 C 0.562043 0.322885 1.06999 0.1883 Uiso
N N 0.502903 0.312139 1.04884 0.1785 Uiso
CA C 0.485345 0.308574 1.05866 0.1921 Uiso
C C 0.483627 0.295269 1.08736 0.2007 Uiso
O O 0.494844 0.284536 1.09234 0.2040 Uiso
CB C 0.475389 0.302005 1.02662 0.1835 Uiso
CG C 0.468081 0.315742 1.00361 0.1862 Uiso
CD1 C 0.478114 0.323687 0.97788 0.1754 Uiso
CD2 C 0.450995 0.320479 1.00698 0.1838 Uiso
CE1 C 0.471213 0.336126 0.955825 0.1918 Uiso
CE2 C 0.443916 0.332943 0.985055 0.1959 Uiso
CZ C 0.45405 0.340786 0.959346 0.2058 Uiso
N N 0.469698 0.296504 1.10687 0.2119 Uiso
CA C 0.465509 0.282996 1.13163 0.1969 Uiso
C C 0.456151 0.269704 1.11055 0.1854 Uiso
O O 0.44939 0.27374 1.08206 0.1743 Uiso
N N 0.455514 0.254043 1.12265 0.1852 Uiso
CA C 0.447213 0.240496 1.10285 0.1853 Uiso
C C 0.428777 0.244647 1.09316 0.1877 Uiso
O O 0.424105 0.244583 1.06194 0.1782 Uiso
CB C 0.44813 0.223932 1.12382 0.1883 Uiso
CG C 0.440312 0.208832 1.10531 0.1924 Uiso
CD C 0.442744 0.192713 1.12675 0.2280 Uiso
NE N 0.435156 0.193515 1.16215 0.2675 Uiso
CZ C 0.418681 0.190982 1.16946 0.2847 Uiso
NH1 N 0.407515 0.18748 1.14394 0.2699 Uiso
NH2 N 0.413359 0.191593 1.20282 0.2912 Uiso
N N 0.418337 0.248492 1.11982 0.1939 Uiso
CA C 0.400359 0.252655 1.11328 0.1977 Uiso
C C 0.397902 0.26964 1.0944 0.1828 Uiso
O O 0.385896 0.271868 1.07409 0.1891 Uiso
CB C 0.390174 0.252248 1.14791 0.2029 Uiso
SG S 0.389588 0.231215 1.16795 0.2204 Uiso
N N 0.409628 0.281532 1.10017 0.1833 Uiso
CA C 0.408584 0.298147 1.08296 0.1760 Uiso
C C 0.410787 0.295791 1.04317 0.1662 Uiso
O O 0.401976 0.303647 1.02199 0.1558 Uiso
CB C 0.422513 0.309911 1.09684 0.1938 Uiso
CG C 0.421647 0.327889 1.08206 0.2031 Uiso
CD C 0.437206 0.338456 1.09122 0.2181 Uiso
OE1 O 0.45046 0.330995 1.10083 0.2403 Uiso
OE2 O 0.436455 0.35432 1.08797 0.2296 Uiso
N N 0.422729 0.284829 1.03324 0.1602 Uiso
CA C 0.42576 0.281201 0.995936 0.1645 Uiso
C C 0.410596 0.271435 0.980157 0.1674 Uiso
O O 0.404854 0.275191 0.950715 0.1759 Uiso
CB C 0.442146 0.270849 0.991488 0.1612 Uiso
CG C 0.44608 0.26675 0.95286 0.1603 Uiso
CD1 C 0.448741 0.283301 0.931547 0.1643 Uiso
CD2 C 0.461728 0.255622 0.951271 0.1598 Uiso
N N 0.404332 0.258767 0.999616 0.1669 Uiso
CA C 0.389664 0.248709 0.98802 0.1716 Uiso
C C 0.374794 0.260613 0.979389 0.1643 Uiso
O O 0.367091 0.259416 0.951139 0.1726 Uiso
CB C 0.38447 0.235926 1.01714 0.1631 Uiso
N N 0.371139 0.272454 1.00335 0.1706 Uiso
CA C 0.357274 0.284524 0.997869 0.1785 Uiso
C C 0.360419 0.295677 0.965357 0.1791 Uiso
O O 0.349011 0.298503 0.943937 0.1858 Uiso
CB C 0.354906 0.29555 1.03075 0.1886 Uiso
N N 0.376016 0.30189 0.961412 0.1800 Uiso
CA C 0.380357 0.312636 0.931308 0.1717 Uiso
C C 0.378511 0.302909 0.896387 0.1815 Uiso
O O 0.372082 0.309809 0.870228 0.1779 Uiso
CB C 0.398526 0.319486 0.935253 0.1868 Uiso
N N 0.384164 0.286917 0.896016 0.1696 Uiso
CA C 0.383158 0.276566 0.864218 0.1681 Uiso
C C 0.364901 0.27281 0.854687 0.1781 Uiso
O O 0.360164 0.273498 0.823551 0.1923 Uiso
CB C 0.392937 0.260129 0.869302 0.1493 Uiso
CG C 0.411945 0.26279 0.86811 0.1667 Uiso
SD S 0.423328 0.243246 0.873776 0.1804 Uiso
CE C 0.442057 0.247283 0.847141 0.1774 Uiso
N N 0.354588 0.269423 0.881692 0.1916 Uiso
CA C 0.336572 0.265566 0.876741 0.2232 Uiso
C C 0.327609 0.28087 0.860909 0.2221 Uiso
O O 0.318263 0.279227 0.83483 0.2220 Uiso
CB C 0.328474 0.260753 0.912193 0.2449 Uiso
CG C 0.309886 0.255724 0.910181 0.3055 Uiso
CD C 0.305493 0.244507 0.941634 0.3447 Uiso
CE C 0.286917 0.239274 0.941925 0.3925 Uiso
NZ N 0.276184 0.253381 0.955004 0.4345 Uiso
N N 0.331428 0.295868 0.875391 0.2348 Uiso
CA C 0.323916 0.311808 0.863186 0.2449 Uiso
C C 0.32878 0.31503 0.824822 0.2385 Uiso
O O 0.318824 0.322223 0.804568 0.2315 Uiso
CB C 0.329913 0.326641 0.88622 0.2722 Uiso
CG C 0.316074 0.339602 0.893368 0.3560 Uiso
CD C 0.32137 0.35758 0.883413 0.4045 Uiso
NE N 0.338635 0.361896 0.894666 0.4486 Uiso
CZ C 0.347076 0.375468 0.882884 0.4653 Uiso
NH1 N 0.339666 0.386049 0.860141 0.4852 Uiso
NH2 N 0.363016 0.378282 0.893077 0.4870 Uiso
N N 0.344084 0.309427 0.814788 0.2263 Uiso
CA C 0.350183 0.311515 0.778648 0.2263 Uiso
C C 0.344759 0.297472 0.752966 0.2232 Uiso
O O 0.351112 0.296632 0.723048 0.2273 Uiso
CB C 0.369382 0.314215 0.778065 0.2297 Uiso
CG C 0.374539 0.332052 0.786749 0.2690 Uiso
ND1 N 0.37883 0.337132 0.820506 0.2741 Uiso
CD2 C 0.375685 0.346197 0.766231 0.2757 Uiso
CE1 C 0.382407 0.353646 0.820453 0.2829 Uiso
NE2 N 0.380574 0.359388 0.787703 0.2912 Uiso
N N 0.333147 0.286497 0.765039 0.2305 Uiso
CA C 0.326119 0.273014 0.742905 0.2335 Uiso
C C 0.336279 0.256933 0.736127 0.2530 Uiso
O O 0.332842 0.247728 0.710499 0.2501 Uiso
N N 0.348731 0.253394 0.758658 0.2480 Uiso
CA C 0.358968 0.238115 0.754184 0.2401 Uiso
C C 0.351125 0.221831 0.768984 0.2441 Uiso
O O 0.355925 0.207915 0.757838 0.2543 Uiso
CB C 0.376767 0.2407 0.769699 0.2276 Uiso
CG C 0.389142 0.251153 0.747433 0.2211 Uiso
CD1 C 0.406598 0.250504 0.765304 0.2394 Uiso
CD2 C 0.390467 0.243909 0.710154 0.2191 Uiso
N N 0.339068 0.22313 0.793554 0.2381 Uiso
CA C 0.33153 0.207622 0.808195 0.2515 Uiso
C C 0.32221 0.198124 0.77886 0.2462 Uiso
O O 0.310306 0.204745 0.762577 0.2498 Uiso
CB C 0.319486 0.211416 0.839172 0.2764 Uiso
CG C 0.31298 0.19517 0.85797 0.3122 Uiso
OD1 O 0.320632 0.181153 0.854369 0.3095 Uiso
OD2 O 0.299917 0.196533 0.876953 0.3510 Uiso
N N 0.328462 0.182897 0.771155 0.2354 Uiso
CA C 0.321345 0.171985 0.743885 0.2371 Uiso
C C 0.324528 0.178339 0.706183 0.2204 Uiso
O O 0.31671 0.172138 0.681004 0.2197 Uiso
CB C 0.302361 0.168892 0.75061 0.2951 Uiso
CG C 0.298962 0.162118 0.787676 0.3612 Uiso
OD1 O 0.304513 0.148088 0.797075 0.4034 Uiso
ND2 N 0.290342 0.172253 0.80936 0.4022 Uiso
N N 0.336356 0.19032 0.701788 0.1991 Uiso
CA C 0.340404 0.196507 0.666495 0.1823 Uiso
C C 0.348604 0.181636 0.646453 0.1953 Uiso
O O 0.360992 0.174137 0.65887 0.1806 Uiso
CB C 0.352563 0.211658 0.667819 0.1697 Uiso
CG C 0.354651 0.219641 0.631891 0.1859 Uiso
CD1 C 0.342734 0.231291 0.619183 0.1901 Uiso
CD2 C 0.368071 0.214956 0.609757 0.1835 Uiso
CE1 C 0.344071 0.237963 0.58532 0.2180 Uiso
CE2 C 0.369535 0.221462 0.575895 0.1977 Uiso
CZ C 0.357529 0.232959 0.563822 0.2261 Uiso
OH O 0.358828 0.23921 0.529985 0.2661 Uiso
N N 0.341219 0.177231 0.615979 0.2018 Uiso
CA C 0.34691 0.162857 0.593819 0.2216 Uiso
C C 0.346096 0.146292 0.614602 0.1964 Uiso
O O 0.355937 0.134553 0.607692 0.2080 Uiso
CB C 0.364952 0.16539 0.579178 0.2504 Uiso
CG C 0.366607 0.17965 0.552887 0.3347 Uiso
CD C 0.356816 0.176072 0.519342 0.4148 Uiso
NE N 0.352754 0.191937 0.5011 0.4937 Uiso
CZ C 0.35171 0.193643 0.466178 0.5319 Uiso
NH1 N 0.355301 0.180554 0.444918 0.5430 Uiso
NH2 N 0.347853 0.208768 0.452463 0.5658 Uiso
N N 0.334675 0.145681 0.640522 0.1766 Uiso
CA C 0.332651 0.130581 0.662259 0.1796 Uiso
C C 0.344924 0.128557 0.693263 0.1734 Uiso
O O 0.344835 0.115303 0.711028 0.1793 Uiso
N N 0.355505 0.141365 0.700279 0.1652 Uiso
CA C 0.3676 0.140155 0.72972 0.1484 Uiso
C C 0.360827 0.149259 0.761994 0.1474 Uiso
O O 0.359311 0.164766 0.76218 0.1455 Uiso
CB C 0.384915 0.147387 0.719368 0.1386 Uiso
CG C 0.393751 0.136629 0.691965 0.1211 Uiso
CD1 C 0.403912 0.122955 0.702079 0.1223 Uiso
CD2 C 0.391982 0.140117 0.655852 0.1229 Uiso
CE1 C 0.412213 0.113024 0.676927 0.1211 Uiso
CE2 C 0.400232 0.130186 0.630488 0.1268 Uiso
CZ C 0.410379 0.116639 0.641396 0.1189 Uiso
OH O 0.419177 0.107001 0.617118 0.1349 Uiso
N N 0.357172 0.139481 0.789662 0.1568 Uiso
CA C 0.350361 0.146789 0.822068 0.1636 Uiso
C C 0.363309 0.158719 0.838616 0.1682 Uiso
O O 0.378664 0.157305 0.831891 0.1557 Uiso
CB C 0.345332 0.132847 0.847962 0.1679 Uiso
OG O 0.359362 0.122242 0.85654 0.2001 Uiso
N N 0.356969 0.170178 0.860723 0.1716 Uiso
CA C 0.367409 0.182833 0.878303 0.1644 Uiso
C C 0.383044 0.175767 0.89689 0.1539 Uiso
O O 0.396667 0.183572 0.895778 0.1463 Uiso
CB C 0.356383 0.192675 0.904462 0.1804 Uiso
CG C 0.362087 0.210283 0.916349 0.1801 Uiso
CD1 C 0.364964 0.221551 0.884366 0.1971 Uiso
CD2 C 0.348438 0.217859 0.940257 0.1859 Uiso
N N 0.381261 0.161138 0.914125 0.1460 Uiso
CA C 0.395687 0.153613 0.932579 0.1398 Uiso
C C 0.410927 0.150443 0.908645 0.1308 Uiso
O O 0.425416 0.151487 0.920215 0.1491 Uiso
N N 0.407655 0.146649 0.875073 0.1168 Uiso
CA C 0.421405 0.143504 0.849789 0.1234 Uiso
C C 0.431884 0.159559 0.84407 0.1265 Uiso
O O 0.447481 0.15905 0.843355 0.1307 Uiso
CB C 0.414301 0.137647 0.814179 0.1384 Uiso
CG C 0.40917 0.119237 0.814523 0.1406 Uiso
OD1 O 0.419916 0.108045 0.813093 0.1416 Uiso
ND2 N 0.392657 0.115952 0.817409 0.1581 Uiso
N N 0.423111 0.173857 0.840284 0.1178 Uiso
CA C 0.431375 0.190141 0.834247 0.1222 Uiso
C C 0.441382 0.196087 0.866177 0.1225 Uiso
O O 0.455374 0.202912 0.862471 0.1310 Uiso
CB C 0.418108 0.20337 0.823657 0.1203 Uiso
CG C 0.409756 0.198837 0.789794 0.1170 Uiso
CD1 C 0.393942 0.192013 0.785346 0.1325 Uiso
CD2 C 0.416822 0.200773 0.755031 0.1335 Uiso
NE1 N 0.390658 0.189632 0.749921 0.1298 Uiso
CE2 C 0.404472 0.19489 0.7307 0.1330 Uiso
CE3 C 0.432457 0.206948 0.742031 0.1458 Uiso
CZ2 C 0.407171 0.195069 0.694057 0.1555 Uiso
CZ3 C 0.435118 0.207113 0.705627 0.1663 Uiso
CH2 C 0.422539 0.201167 0.682063 0.1686 Uiso
N N 0.434303 0.193464 0.897578 0.1194 Uiso
CA C 0.442935 0.198684 0.929932 0.1183 Uiso
C C 0.458583 0.187595 0.935624 0.1137 Uiso
O O 0.472257 0.193872 0.944361 0.1269 Uiso
CB C 0.430853 0.197882 0.962153 0.1402 Uiso
CG1 C 0.440733 0.201982 0.996466 0.1522 Uiso
CG2 C 0.415982 0.210398 0.956752 0.1294 Uiso
N N 0.456673 0.171171 0.929402 0.1046 Uiso
CA C 0.470856 0.159495 0.933188 0.1153 Uiso
C C 0.485014 0.164232 0.906845 0.1165 Uiso
O O 0.500076 0.164359 0.916138 0.1212 Uiso
CB C 0.464758 0.141314 0.92641 0.1232 Uiso
SG S 0.481144 0.125323 0.932182 0.1411 Uiso
N N 0.480138 0.168293 0.874147 0.1141 Uiso
CA C 0.49259 0.173055 0.847274 0.1324 Uiso
C C 0.502228 0.189034 0.858976 0.1311 Uiso
O O 0.517914 0.18953 0.857387 0.1432 Uiso
CB C 0.483932 0.176047 0.811822 0.1340 Uiso
N N 0.492934 0.201727 0.872082 0.1211 Uiso
CA C 0.500866 0.217477 0.883996 0.1180 Uiso
C C 0.512872 0.214128 0.914973 0.1258 Uiso
O O 0.526712 0.2215 0.916958 0.1334 Uiso
CB C 0.487344 0.230464 0.894374 0.1098 Uiso
N N 0.507626 0.203153 0.939278 0.1213 Uiso
CA C 0.518219 0.199079 0.969804 0.1370 Uiso
C C 0.535471 0.192229 0.958552 0.1444 Uiso
O O 0.548827 0.198353 0.970202 0.1546 Uiso
CB C 0.509549 0.185711 0.993103 0.1579 Uiso
CG C 0.521033 0.17839 1.02188 0.1791 Uiso
CD C 0.526113 0.191809 1.0487 0.2202 Uiso
CE C 0.537687 0.184297 1.07677 0.2466 Uiso
NZ N 0.542207 0.197399 1.10335 0.2831 Uiso
N N 0.53514 0.179485 0.935598 0.1388 Uiso
CA C 0.55089 0.171705 0.924531 0.1412 Uiso
C C 0.560757 0.18086 0.896387 0.1408 Uiso
O O 0.575985 0.178186 0.893262 0.1659 Uiso
CB C 0.548101 0.152887 0.916323 0.1483 Uiso
CG C 0.542576 0.142918 0.948332 0.1394 Uiso
CD1 C 0.552023 0.143873 0.979759 0.1392 Uiso
CD2 C 0.527692 0.133382 0.947882 0.1524 Uiso
CE1 C 0.546574 0.135457 1.0105 0.1650 Uiso
CE2 C 0.522103 0.124928 0.978383 0.1812 Uiso
CZ C 0.531601 0.125959 1.00978 0.1622 Uiso
N N 0.552418 0.191873 0.876424 0.1194 Uiso
CA C 0.561445 0.201371 0.849365 0.1277 Uiso
C C 0.570446 0.216904 0.864536 0.1392 Uiso
O O 0.585177 0.220049 0.856249 0.1393 Uiso
CB C 0.549184 0.207406 0.82048 0.1229 Uiso
CG C 0.542971 0.193375 0.795513 0.1389 Uiso
CD C 0.556925 0.186564 0.771155 0.1560 Uiso
OE1 O 0.570739 0.194394 0.769514 0.1619 Uiso
OE2 O 0.554136 0.173488 0.753337 0.1692 Uiso
N N 0.561827 0.226186 0.887967 0.1302 Uiso
CA C 0.568778 0.242126 0.901947 0.1364 Uiso
C C 0.568193 0.244672 0.941793 0.1415 Uiso
O O 0.573387 0.25813 0.954766 0.1387 Uiso
CB C 0.558453 0.256653 0.886008 0.1336 Uiso
OG O 0.541634 0.256335 0.900093 0.1337 Uiso
N N 0.561203 0.232259 0.960829 0.1437 Uiso
CA C 0.558898 0.233379 0.999087 0.1654 Uiso
C C 0.547248 0.248568 1.00714 0.1496 Uiso
O O 0.549502 0.257494 1.03329 0.1498 Uiso
CB C 0.575921 0.234703 1.01892 0.2099 Uiso
CG C 0.574648 0.228248 1.05659 0.2439 Uiso
OD1 O 0.563329 0.218177 1.06538 0.2777 Uiso
ND2 N 0.586323 0.233799 1.0791 0.2832 Uiso
N N 0.535102 0.251446 0.983281 0.1368 Uiso
CA C 0.522408 0.264993 0.985928 0.1399 Uiso
C C 0.529767 0.28297 0.983334 0.1422 Uiso
O O 0.521517 0.295231 0.994215 0.1474 Uiso
CB C 0.51249 0.26363 1.02082 0.1500 Uiso
CG C 0.502941 0.247244 1.02572 0.1397 Uiso
CD1 C 0.495455 0.238994 0.99726 0.1360 Uiso
CD2 C 0.500866 0.240573 1.05958 0.1515 Uiso
CE1 C 0.48574 0.224339 1.00248 0.1522 Uiso
CE2 C 0.491266 0.226046 1.0652 0.1600 Uiso
CZ C 0.48369 0.217897 1.03644 0.1460 Uiso
N N 0.545071 0.284549 0.968798 0.1334 Uiso
CA C 0.553513 0.301088 0.965621 0.1339 Uiso
C C 0.551692 0.307747 0.927972 0.1250 Uiso
O O 0.558644 0.300311 0.903111 0.1312 Uiso
CB C 0.572381 0.299025 0.97502 0.1308 Uiso
CG C 0.582096 0.315755 0.975259 0.1460 Uiso
OD1 O 0.575119 0.329531 0.96864 0.1475 Uiso
ND2 N 0.598482 0.314584 0.983228 0.1855 Uiso
N N 0.542894 0.322083 0.923975 0.1274 Uiso
CA C 0.540195 0.329608 0.889185 0.1308 Uiso
C C 0.556581 0.335579 0.87187 0.1203 Uiso
O O 0.557307 0.337183 0.83994 0.1235 Uiso
CB C 0.528138 0.345064 0.890668 0.1343 Uiso
OG1 O 0.535662 0.358369 0.911372 0.1451 Uiso
CG2 C 0.51114 0.340073 0.906739 0.1443 Uiso
N N 0.569695 0.338673 0.893209 0.1225 Uiso
CA C 0.585826 0.345217 0.879468 0.1253 Uiso
C C 0.598966 0.331861 0.869328 0.1374 Uiso
O O 0.613124 0.336075 0.858473 0.1519 Uiso
CB C 0.593555 0.357745 0.906156 0.1386 Uiso
CG C 0.582402 0.373291 0.913411 0.1349 Uiso
CD C 0.592205 0.387475 0.931229 0.1553 Uiso
OE1 O 0.602149 0.396463 0.914231 0.1893 Uiso
NE2 N 0.590003 0.389142 0.965727 0.1553 Uiso
N N 0.594217 0.315755 0.871976 0.1337 Uiso
CA C 0.606007 0.302068 0.86345 0.1450 Uiso
C C 0.61129 0.301865 0.824531 0.1311 Uiso
O O 0.600799 0.304386 0.800755 0.1225 Uiso
CB C 0.598189 0.284906 0.873617 0.1411 Uiso
N N 0.627778 0.299624 0.818494 0.1230 Uiso
CA C 0.63459 0.29816 0.78299 0.1349 Uiso
C C 0.647551 0.2839 0.783864 0.1327 Uiso
O O 0.656082 0.281048 0.810604 0.1519 Uiso
CB C 0.643719 0.314457 0.770202 0.1494 Uiso
OG1 O 0.657011 0.318811 0.794666 0.1681 Uiso
CG2 C 0.63142 0.329238 0.766283 0.1473 Uiso
N N 0.648964 0.274745 0.754661 0.1375 Uiso
CA C 0.661353 0.261122 0.752039 0.1522 Uiso
C C 0.667107 0.259556 0.713861 0.1475 Uiso
O O 0.656629 0.258907 0.68998 0.1440 Uiso
CB C 0.653675 0.244481 0.76533 0.1909 Uiso
CG C 0.650823 0.244558 0.805468 0.2229 Uiso
OD1 O 0.636589 0.246824 0.818203 0.2591 Uiso
ND2 N 0.664536 0.242559 0.825351 0.2258 Uiso
N N 0.683863 0.259543 0.708301 0.1598 Uiso
CA C 0.691235 0.258232 0.67277 0.1776 Uiso
C C 0.692457 0.239656 0.661809 0.1858 Uiso
O O 0.696773 0.228732 0.683361 0.1988 Uiso
CB C 0.709225 0.26582 0.672188 0.2094 Uiso
CG C 0.716164 0.269436 0.63528 0.2314 Uiso
CD C 0.710142 0.286688 0.62371 0.2910 Uiso
NE N 0.713185 0.290215 0.586326 0.3370 Uiso
CZ C 0.725675 0.300095 0.574041 0.3282 Uiso
NH1 N 0.736599 0.307301 0.596228 0.3320 Uiso
NH2 N 0.726209 0.304042 0.539887 0.3146 Uiso
N N 0.688866 0.236244 0.628238 0.1940 Uiso
CA C 0.689758 0.219081 0.613755 0.2195 Uiso
C C 0.706233 0.21777 0.592919 0.2261 Uiso
O O 0.713325 0.230693 0.582143 0.2366 Uiso
CB C 0.674428 0.215771 0.589847 0.2324 Uiso
CG C 0.657495 0.218012 0.609201 0.2392 Uiso
OD1 O 0.646011 0.226848 0.596652 0.2750 Uiso
ND2 N 0.656005 0.210156 0.639966 0.2646 Uiso
N N 0.712115 0.202237 0.586114 0.2624 Uiso
CA C 0.728157 0.199461 0.566787 0.2837 Uiso
C C 0.727903 0.206209 0.529138 0.2736 Uiso
O O 0.74108 0.211595 0.515529 0.2956 Uiso
CB C 0.733276 0.180427 0.565887 0.3035 Uiso
OG1 O 0.719945 0.170598 0.550028 0.3435 Uiso
CG2 C 0.736306 0.174074 0.603059 0.3161 Uiso
N N 0.713019 0.206005 0.512405 0.2570 Uiso
CA C 0.711555 0.21241 0.476451 0.2524 Uiso
C C 0.711911 0.231902 0.475259 0.2462 Uiso
O O 0.710358 0.239401 0.446718 0.2660 Uiso
CB C 0.6955 0.20556 0.458368 0.2517 Uiso
CG C 0.679343 0.211467 0.475815 0.2769 Uiso
OD1 O 0.680069 0.219909 0.503536 0.3011 Uiso
OD2 O 0.665554 0.20761 0.462074 0.3062 Uiso
N N 0.713337 0.240114 0.505971 0.2215 Uiso
CA C 0.71405 0.258538 0.506739 0.1920 Uiso
C C 0.697244 0.267348 0.514285 0.1890 Uiso
O O 0.696837 0.282818 0.520242 0.1967 Uiso
N N 0.683277 0.257837 0.513332 0.1648 Uiso
CA C 0.666764 0.265247 0.520983 0.1505 Uiso
C C 0.665618 0.267017 0.561306 0.1407 Uiso
O O 0.676593 0.260664 0.580528 0.1508 Uiso
CB C 0.652695 0.253687 0.507454 0.1541 Uiso
OG O 0.653102 0.237912 0.525511 0.1748 Uiso
N N 0.652593 0.275777 0.574121 0.1293 Uiso
CA C 0.650518 0.278209 0.612193 0.1318 Uiso
C C 0.631814 0.275433 0.620824 0.1286 Uiso
O O 0.62089 0.278972 0.598505 0.1307 Uiso
CB C 0.655751 0.296492 0.623154 0.1405 Uiso
OG1 O 0.673295 0.299382 0.613861 0.1312 Uiso
CG2 C 0.653433 0.29928 0.663027 0.1417 Uiso
N N 0.62844 0.268163 0.65196 0.1170 Uiso
CA C 0.611176 0.265005 0.664774 0.1273 Uiso
C C 0.607089 0.279494 0.689874 0.1216 Uiso
O O 0.617784 0.284269 0.711584 0.1179 Uiso
CB C 0.610221 0.248123 0.684155 0.1384 Uiso
CG C 0.612996 0.233252 0.660009 0.1738 Uiso
OD1 O 0.610463 0.234932 0.627788 0.1830 Uiso
OD2 O 0.617605 0.21954 0.673326 0.2647 Uiso
N N 0.591441 0.285899 0.687676 0.1237 Uiso
CA C 0.586081 0.300604 0.708222 0.1160 Uiso
C C 0.569873 0.298771 0.728529 0.1253 Uiso
O O 0.557154 0.292303 0.714999 0.1321 Uiso
CB C 0.582924 0.315615 0.683387 0.1165 Uiso
CG C 0.598431 0.321892 0.664457 0.1212 Uiso
CD1 C 0.603779 0.314355 0.632977 0.1246 Uiso
CD2 C 0.608056 0.335248 0.678304 0.1211 Uiso
CE1 C 0.618344 0.319893 0.615794 0.1226 Uiso
CE2 C 0.622584 0.340888 0.661333 0.1369 Uiso
CZ C 0.627562 0.333096 0.630144 0.1310 Uiso
OH O 0.641898 0.338546 0.613199 0.1424 Uiso
N N 0.570204 0.305442 0.760591 0.1273 Uiso
CA C 0.554951 0.306041 0.78164 0.1343 Uiso
C C 0.549222 0.290699 0.801867 0.1197 Uiso
O O 0.557358 0.277305 0.802714 0.1213 Uiso
N N 0.534084 0.29285 0.81635 0.1311 Uiso
CA C 0.526101 0.280348 0.838457 0.1436 Uiso
C C 0.523567 0.26321 0.819791 0.1348 Uiso
O O 0.524535 0.249893 0.83671 0.1417 Uiso
CB C 0.509574 0.288025 0.85474 0.1763 Uiso
CG1 C 0.504825 0.278425 0.888444 0.2052 Uiso
CG2 C 0.49534 0.288878 0.827099 0.1724 Uiso
CD1 C 0.493545 0.288318 0.912855 0.2457 Uiso
N N 0.521173 0.263516 0.784949 0.1272 Uiso
CA C 0.51892 0.247881 0.765119 0.1381 Uiso
C C 0.533994 0.2441 0.741555 0.1377 Uiso
O O 0.53304 0.233392 0.717912 0.1358 Uiso
CB C 0.502279 0.248199 0.74415 0.1672 Uiso
CG C 0.486453 0.245984 0.767343 0.1816 Uiso
CD1 C 0.470474 0.249065 0.745632 0.1910 Uiso
CD2 C 0.486606 0.228223 0.783758 0.1958 Uiso
N N 0.547847 0.253458 0.747062 0.1260 Uiso
CA C 0.563456 0.250542 0.727152 0.1254 Uiso
C C 0.560833 0.248658 0.6872 0.1241 Uiso
O O 0.566015 0.236015 0.671393 0.1408 Uiso
CB C 0.572534 0.234882 0.742376 0.1211 Uiso
CG C 0.580072 0.238141 0.779071 0.1299 Uiso
CD C 0.594713 0.250593 0.777589 0.1340 Uiso
OE1 O 0.609113 0.245653 0.770387 0.1299 Uiso
NE2 N 0.591008 0.266979 0.783281 0.1367 Uiso
N N 0.553131 0.261555 0.671208 0.1288 Uiso
CA C 0.54968 0.261644 0.633506 0.1397 Uiso
C C 0.566079 0.265515 0.613199 0.1512 Uiso
O O 0.575679 0.277368 0.621857 0.1360 Uiso
CB C 0.535128 0.273905 0.625458 0.1549 Uiso
CG1 C 0.518601 0.266151 0.639728 0.1386 Uiso
CG2 C 0.534084 0.277737 0.585982 0.1688 Uiso
CD1 C 0.503578 0.277941 0.638219 0.1520 Uiso
N N 0.5693 0.254947 0.586697 0.1559 Uiso
CA C 0.584935 0.255609 0.565887 0.1686 Uiso
C C 0.585788 0.268838 0.536022 0.1624 Uiso
O O 0.57396 0.270468 0.514523 0.1755 Uiso
CB C 0.588602 0.237543 0.552516 0.1681 Uiso
CG C 0.605612 0.236129 0.534989 0.1579 Uiso
CG C 0.606771 0.23534 0.539384 0.1857 Uiso
OD1 O 0.606681 0.236791 0.502847 0.1703 Uiso
OD1 O 0.61553 0.247614 0.53115 0.2087 Uiso
ND2 N 0.619044 0.234398 0.555799 0.1479 Uiso
ND2 N 0.612182 0.219501 0.535969 0.2042 Uiso
N N 0.600264 0.27775 0.534115 0.1525 Uiso
CA C 0.60332 0.290966 0.507639 0.1606 Uiso
C C 0.606592 0.284167 0.470096 0.1678 Uiso
O O 0.606287 0.29392 0.4446 0.1844 Uiso
CB C 0.61828 0.302145 0.519236 0.1408 Uiso
OG O 0.633686 0.292698 0.519368 0.1389 Uiso
N N 0.610043 0.267654 0.466919 0.1969 Uiso
CA C 0.613175 0.259671 0.432421 0.2401 Uiso
C C 0.59726 0.260524 0.409413 0.2418 Uiso
O O 0.598495 0.262676 0.377113 0.2457 Uiso
CB C 0.618662 0.241018 0.437187 0.2752 Uiso
CG C 0.620139 0.230413 0.403642 0.3651 Uiso
CD C 0.635494 0.235276 0.381243 0.4343 Uiso
NE N 0.651638 0.233494 0.400385 0.4868 Uiso
CZ C 0.665631 0.242406 0.393025 0.5105 Uiso
NH1 N 0.665567 0.253776 0.366787 0.5375 Uiso
NH2 N 0.679674 0.240025 0.411929 0.5081 Uiso
N N 0.582338 0.260129 0.42612 0.2229 Uiso
CA C 0.566537 0.260409 0.406077 0.2266 Uiso
C C 0.553232 0.273167 0.416562 0.2006 Uiso
O O 0.544053 0.279724 0.39411 0.2104 Uiso
CB C 0.557409 0.243208 0.409308 0.2708 Uiso
CG C 0.568256 0.228032 0.404621 0.3432 Uiso
CD1 C 0.575182 0.218164 0.430833 0.3688 Uiso
CD2 C 0.573642 0.220876 0.371871 0.3807 Uiso
NE1 N 0.58463 0.20528 0.416059 0.3982 Uiso
CE2 C 0.583929 0.206642 0.379946 0.4047 Uiso
CE3 C 0.570841 0.225142 0.336313 0.4112 Uiso
CZ2 C 0.591479 0.196533 0.353602 0.4475 Uiso
CZ3 C 0.578327 0.215147 0.310076 0.4467 Uiso
CH2 C 0.588538 0.200989 0.318892 0.4567 Uiso
N N 0.552749 0.277801 0.450795 0.1881 Uiso
CA C 0.537203 0.286561 0.462604 0.1692 Uiso
C C 0.539355 0.305481 0.4706 0.1639 Uiso
O O 0.526508 0.314775 0.470467 0.1678 Uiso
CB C 0.530608 0.277878 0.495434 0.1720 Uiso
CG C 0.528558 0.258894 0.488577 0.1662 Uiso
CD1 C 0.538743 0.246404 0.500385 0.1674 Uiso
CD2 C 0.515355 0.251344 0.467952 0.1654 Uiso
NE1 N 0.532276 0.230769 0.487226 0.1772 Uiso
CE2 C 0.518423 0.233863 0.467952 0.1763 Uiso
CE3 C 0.501222 0.257774 0.449286 0.1863 Uiso
CZ2 C 0.507996 0.222175 0.449763 0.1764 Uiso
CZ3 C 0.490858 0.245971 0.431256 0.1783 Uiso
CH2 C 0.494156 0.228885 0.431521 0.1836 Uiso
N N 0.554417 0.311987 0.478013 0.1633 Uiso
CA C 0.556314 0.329926 0.485876 0.1549 Uiso
C C 0.573171 0.336139 0.471182 0.1595 Uiso
O O 0.584515 0.325992 0.462498 0.1591 Uiso
CB C 0.55518 0.333007 0.525908 0.1459 Uiso
SG S 0.571605 0.322223 0.55196 0.1410 Uiso
N N 0.574533 0.352844 0.467502 0.1568 Uiso
CA C 0.589913 0.360559 0.453787 0.1687 Uiso
C C 0.600965 0.36816 0.48307 0.1527 Uiso
O O 0.594968 0.379046 0.503165 0.1487 Uiso
CB C 0.585495 0.374603 0.427232 0.1833 Uiso
CG C 0.601309 0.382267 0.410181 0.2379 Uiso
OD1 O 0.613226 0.373075 0.400544 0.2651 Uiso
ND2 N 0.601729 0.399086 0.407216 0.2969 Uiso
N N 0.616803 0.36224 0.485956 0.1345 Uiso
CA C 0.62844 0.369408 0.511981 0.1334 Uiso
C C 0.643579 0.378027 0.494454 0.1484 Uiso
O O 0.655458 0.38354 0.51214 0.1629 Uiso
CB C 0.63431 0.35623 0.539093 0.1384 Uiso
CG C 0.644445 0.34169 0.523154 0.1254 Uiso
OD1 O 0.648366 0.341525 0.491039 0.1456 Uiso
OD2 O 0.648404 0.329913 0.543647 0.1411 Uiso
N N 0.643031 0.379059 0.459427 0.1682 Uiso
CA C 0.656591 0.387131 0.439649 0.1873 Uiso
C C 0.673588 0.377913 0.438934 0.2126 Uiso
O O 0.685951 0.384877 0.424902 0.2449 Uiso
N N 0.674581 0.362431 0.453099 0.1858 Uiso
CA C 0.690751 0.353289 0.453046 0.2021 Uiso
C C 0.68935 0.334204 0.446295 0.2080 Uiso
O O 0.699994 0.324235 0.458818 0.2351 Uiso
CB C 0.700287 0.356307 0.48765 0.2028 Uiso
CG C 0.691706 0.348617 0.519474 0.2124 Uiso
CD C 0.704158 0.347776 0.549472 0.2328 Uiso
NE N 0.698556 0.336216 0.577165 0.2449 Uiso
CZ C 0.704514 0.336483 0.610155 0.2663 Uiso
NH1 N 0.716419 0.347827 0.619103 0.2798 Uiso
NH2 N 0.698606 0.325482 0.634115 0.2381 Uiso
N N 0.676389 0.329009 0.426676 0.2020 Uiso
CA C 0.674148 0.311108 0.417992 0.1992 Uiso
C C 0.672366 0.310943 0.377722 0.2311 Uiso
O O 0.658284 0.311566 0.363531 0.2404 Uiso
CB C 0.657928 0.303673 0.435492 0.1899 Uiso
OG1 O 0.657788 0.307912 0.472479 0.1665 Uiso
CG2 C 0.657418 0.284396 0.431415 0.1690 Uiso
N N 0.686753 0.311579 0.358818 0.2617 Uiso
CA C 0.687313 0.311617 0.320083 0.2875 Uiso
C C 0.675867 0.298338 0.303324 0.3092 Uiso
O O 0.67546 0.283569 0.314735 0.3247 Uiso
CB C 0.705889 0.30776 0.312617 0.3026 Uiso
CG C 0.714649 0.317016 0.342217 0.3033 Uiso
CD C 0.704056 0.312012 0.373777 0.2717 Uiso
N N 0.666267 0.303902 0.276822 0.3307 Uiso
CA C 0.654783 0.292481 0.258288 0.3540 Uiso
C C 0.640625 0.285147 0.281084 0.3620 Uiso
O O 0.635659 0.270468 0.276239 0.3998 Uiso
N N 0.634666 0.294951 0.30674 0.3451 Uiso
CA C 0.620979 0.289171 0.329535 0.3369 Uiso
C C 0.604479 0.297599 0.317462 0.3341 Uiso
O O 0.604593 0.310357 0.298267 0.3298 Uiso
CB C 0.624608 0.293627 0.368296 0.3383 Uiso
OG O 0.622889 0.311363 0.374783 0.3403 Uiso
N N 0.590321 0.289973 0.327788 0.3168 Uiso
CA C 0.573731 0.29667 0.318574 0.3142 Uiso
C C 0.567378 0.306143 0.350928 0.2894 Uiso
O O 0.57503 0.305251 0.379681 0.2923 Uiso
CB C 0.561572 0.282168 0.308911 0.3434 Uiso
CG C 0.566818 0.272377 0.275763 0.4111 Uiso
CD C 0.556135 0.277521 0.243621 0.4896 Uiso
NE N 0.539724 0.26857 0.242668 0.5484 Uiso
CZ C 0.526775 0.272568 0.221354 0.5798 Uiso
NH1 N 0.527985 0.285542 0.198876 0.5775 Uiso
NH2 N 0.512503 0.263516 0.222466 0.5959 Uiso
N N 0.553691 0.315615 0.345951 0.2522 Uiso
CA C 0.545848 0.325368 0.374253 0.2289 Uiso
C C 0.526877 0.322121 0.369541 0.2151 Uiso
O O 0.516934 0.333809 0.363028 0.2059 Uiso
CB C 0.550024 0.344288 0.370203 0.2168 Uiso
CG C 0.542308 0.35511 0.399273 0.2053 Uiso
OD1 O 0.534491 0.348617 0.424002 0.2135 Uiso
ND2 N 0.544231 0.371776 0.396017 0.2076 Uiso
N N 0.522026 0.30599 0.37285 0.2139 Uiso
CA C 0.504367 0.300795 0.367926 0.2149 Uiso
C C 0.491444 0.309287 0.392072 0.2073 Uiso
O O 0.476624 0.310968 0.382196 0.2295 Uiso
CB C 0.502827 0.281404 0.369249 0.2361 Uiso
CG C 0.512312 0.272772 0.338776 0.2600 Uiso
CD1 C 0.511968 0.25347 0.342694 0.2660 Uiso
CD2 C 0.504189 0.278285 0.303854 0.2847 Uiso
N N 0.496766 0.314902 0.423287 0.1904 Uiso
CA C 0.484874 0.323573 0.446692 0.1871 Uiso
C C 0.485002 0.342734 0.440708 0.1983 Uiso
O O 0.47516 0.352016 0.45707 0.2025 Uiso
CB C 0.488427 0.319384 0.485506 0.1777 Uiso
SG S 0.482455 0.297599 0.495778 0.1852 Uiso
N N 0.496295 0.348642 0.417621 0.2138 Uiso
CA C 0.49753 0.366709 0.409202 0.2447 Uiso
C C 0.499936 0.378053 0.440973 0.2314 Uiso
O O 0.490489 0.390339 0.446453 0.2192 Uiso
CB C 0.481946 0.372578 0.388497 0.3143 Uiso
CG C 0.485562 0.373839 0.349604 0.3945 Uiso
OD1 O 0.4959 0.38447 0.338272 0.4514 Uiso
ND2 N 0.47777 0.362647 0.328821 0.4258 Uiso
N N 0.512872 0.374081 0.461836 0.2106 Uiso
CA C 0.516552 0.384024 0.493342 0.2206 Uiso
C C 0.535293 0.383235 0.502635 0.2016 Uiso
O O 0.544333 0.371343 0.49223 0.1809 Uiso
CB C 0.507448 0.37706 0.527285 0.2246 Uiso
CG1 C 0.509918 0.357784 0.530171 0.2457 Uiso
CG2 C 0.48914 0.38298 0.529429 0.2532 Uiso
CD1 C 0.50615 0.350603 0.566575 0.2764 Uiso
N N 0.541735 0.396769 0.51958 0.1902 Uiso
CA C 0.5597 0.396196 0.5298 0.1778 Uiso
C C 0.5597 0.383757 0.5612 0.1539 Uiso
O O 0.547325 0.382917 0.581481 0.1439 Uiso
CB C 0.563367 0.414492 0.541502 0.1872 Uiso
CG C 0.546153 0.421405 0.552251 0.2220 Uiso
CD C 0.534389 0.413843 0.524902 0.2067 Uiso
N N 0.573043 0.373609 0.56443 0.1383 Uiso
CA C 0.573858 0.36131 0.593236 0.1279 Uiso
C C 0.572687 0.369853 0.629429 0.1375 Uiso
O O 0.566181 0.362303 0.654925 0.1465 Uiso
CB C 0.590053 0.350705 0.59035 0.1203 Uiso
SG S 0.59153 0.338622 0.549339 0.1294 Uiso
N N 0.578518 0.385705 0.631679 0.1349 Uiso
CA C 0.577818 0.394974 0.665066 0.1598 Uiso
C C 0.559548 0.396489 0.678939 0.1597 Uiso
O O 0.556772 0.39682 0.711081 0.1726 Uiso
CB C 0.585712 0.412608 0.660962 0.1573 Uiso
OG O 0.57722 0.421876 0.634221 0.1924 Uiso
N N 0.547083 0.396845 0.655031 0.1621 Uiso
CA C 0.529093 0.397966 0.665648 0.1835 Uiso
C C 0.523987 0.382573 0.688312 0.1852 Uiso
O O 0.512376 0.383617 0.710578 0.2024 Uiso
CB C 0.51771 0.399137 0.633083 0.1824 Uiso
N N 0.532899 0.368402 0.683043 0.1614 Uiso
CA C 0.529589 0.352729 0.702291 0.1662 Uiso
C C 0.53635 0.3525 0.740205 0.1643 Uiso
O O 0.533549 0.340175 0.759373 0.1825 Uiso
CB C 0.537152 0.337743 0.681772 0.1605 Uiso
CG C 0.529857 0.33549 0.644626 0.1887 Uiso
CD1 C 0.53994 0.321943 0.62469 0.1923 Uiso
CD2 C 0.511 0.330957 0.647036 0.1812 Uiso
N N 0.544842 0.366085 0.751536 0.1625 Uiso
CA C 0.551985 0.366632 0.787041 0.1587 Uiso
C C 0.541914 0.377887 0.811796 0.1755 Uiso
O O 0.545873 0.379021 0.84354 0.1887 Uiso
CB C 0.570459 0.373036 0.785876 0.1673 Uiso
CG C 0.582376 0.36308 0.76128 0.1866 Uiso
CD1 C 0.59987 0.371076 0.762259 0.2109 Uiso
CD2 C 0.583522 0.344619 0.772902 0.1730 Uiso
N N 0.528902 0.38615 0.797181 0.1869 Uiso
CA C 0.51771 0.397622 0.816932 0.1891 Uiso
C C 0.50853 0.389257 0.84783 0.1887 Uiso
O O 0.505271 0.374055 0.847327 0.1891 Uiso
CB C 0.504393 0.405185 0.791833 0.1892 Uiso
OG O 0.492272 0.414836 0.810975 0.2401 Uiso
N N 0.504265 0.399328 0.874623 0.1968 Uiso
CA C 0.494844 0.392886 0.904885 0.2025 Uiso
C C 0.476802 0.388442 0.89313 0.2123 Uiso
O O 0.467966 0.378588 0.910313 0.2394 Uiso
CB C 0.494665 0.406242 0.934433 0.2021 Uiso
CB C 0.494729 0.405923 0.934936 0.2092 Uiso
OG O 0.489904 0.422386 0.921698 0.1836 Uiso
OG O 0.511701 0.407859 0.947856 0.2137 Uiso
N N 0.471519 0.395712 0.863397 0.2182 Uiso
CA C 0.454776 0.392567 0.847803 0.2238 Uiso
C C 0.457857 0.377505 0.823022 0.2110 Uiso
O O 0.467839 0.378791 0.797922 0.2125 Uiso
CB C 0.449136 0.408113 0.82641 0.2494 Uiso
CG C 0.430853 0.406649 0.812908 0.3024 Uiso
OD1 O 0.4252 0.392427 0.804621 0.2984 Uiso
OD2 O 0.42194 0.419763 0.81124 0.3499 Uiso
N N 0.449301 0.363284 0.829773 0.1959 Uiso
CA C 0.452 0.347993 0.808327 0.1748 Uiso
C C 0.44254 0.347216 0.773458 0.1692 Uiso
O O 0.444247 0.334828 0.753946 0.1596 Uiso
CB C 0.448206 0.331543 0.829164 0.1782 Uiso
CG1 C 0.429197 0.33027 0.838219 0.1748 Uiso
CG2 C 0.459423 0.330792 0.862471 0.1873 Uiso
CD1 C 0.424308 0.313705 0.855534 0.1983 Uiso
N N 0.432597 0.360241 0.765224 0.1671 Uiso
CA C 0.422819 0.360343 0.732527 0.1714 Uiso
C C 0.432686 0.354932 0.699299 0.1665 Uiso
O O 0.426867 0.343867 0.679522 0.1693 Uiso
CB C 0.414505 0.377849 0.726755 0.1869 Uiso
OG1 O 0.40409 0.381822 0.75654 0.2149 Uiso
CG2 C 0.40339 0.377544 0.694348 0.2106 Uiso
N N 0.447544 0.362456 0.693104 0.1484 Uiso
CA C 0.457373 0.358255 0.661412 0.1595 Uiso
C C 0.462683 0.339717 0.662127 0.1536 Uiso
O O 0.461664 0.331021 0.635042 0.1749 Uiso
CB C 0.473008 0.369815 0.658129 0.1595 Uiso
N N 0.468641 0.333771 0.692707 0.1382 Uiso
CA C 0.47395 0.315997 0.696307 0.1431 Uiso
C C 0.459143 0.303774 0.688841 0.1455 Uiso
O O 0.46104 0.291068 0.669911 0.1496 Uiso
CB C 0.481411 0.312725 0.733215 0.1397 Uiso
OG O 0.498587 0.318213 0.73483 0.1551 Uiso
N N 0.444336 0.30781 0.703377 0.1481 Uiso
CA C 0.429427 0.297179 0.698002 0.1591 Uiso
C C 0.423735 0.297128 0.65932 0.1667 Uiso
O O 0.420476 0.283556 0.644441 0.1648 Uiso
CB C 0.414708 0.302718 0.722413 0.1790 Uiso
CG1 C 0.398131 0.293258 0.712378 0.1904 Uiso
CG2 C 0.419534 0.299076 0.760618 0.1855 Uiso
N N 0.422691 0.312088 0.642826 0.1559 Uiso
CA C 0.417331 0.31312 0.605812 0.1823 Uiso
C C 0.429134 0.303265 0.581587 0.1771 Uiso
O O 0.423366 0.294786 0.556964 0.1830 Uiso
CB C 0.41616 0.331581 0.593077 0.2205 Uiso
CG C 0.401836 0.341334 0.610896 0.2843 Uiso
OD1 O 0.390377 0.333746 0.626755 0.2902 Uiso
ND2 N 0.402473 0.358318 0.608434 0.3141 Uiso
N N 0.445673 0.304436 0.588418 0.1577 Uiso
CA C 0.457972 0.295333 0.566972 0.1473 Uiso
C C 0.456877 0.27621 0.574385 0.1421 Uiso
O O 0.457641 0.265871 0.549975 0.1432 Uiso
CB C 0.475822 0.302094 0.57428 0.1546 Uiso
SG S 0.492093 0.293729 0.544918 0.1771 Uiso
N N 0.454636 0.271537 0.607983 0.1401 Uiso
CA C 0.453197 0.253636 0.618256 0.1382 Uiso
C C 0.43797 0.24536 0.599352 0.1473 Uiso
O O 0.438657 0.230553 0.588947 0.1532 Uiso
CB C 0.451326 0.252057 0.658129 0.1301 Uiso
N N 0.424206 0.254934 0.594798 0.1525 Uiso
CA C 0.40931 0.248237 0.576477 0.1627 Uiso
C C 0.413868 0.243527 0.53851 0.1691 Uiso
O O 0.407833 0.23082 0.524981 0.1950 Uiso
CB C 0.394846 0.261339 0.576742 0.1750 Uiso
CG C 0.386532 0.263287 0.612511 0.1779 Uiso
CD C 0.372693 0.276706 0.611875 0.2066 Uiso
CE C 0.365015 0.278514 0.648783 0.2325 Uiso
NZ N 0.353493 0.293436 0.65204 0.2398 Uiso
N N 0.424436 0.253789 0.521169 0.1747 Uiso
CA C 0.429401 0.249905 0.484685 0.2006 Uiso
C C 0.440771 0.234181 0.48397 0.1863 Uiso
O O 0.439065 0.223168 0.461227 0.1844 Uiso
CB C 0.438785 0.264904 0.467422 0.2380 Uiso
CG C 0.427886 0.280793 0.46226 0.3271 Uiso
CD C 0.436506 0.293627 0.437743 0.3739 Uiso
CE C 0.425734 0.30986 0.433507 0.4154 Uiso
NZ N 0.42385 0.319919 0.466972 0.4397 Uiso
N N 0.452471 0.233239 0.509228 0.1603 Uiso
CA C 0.464261 0.218877 0.511293 0.1578 Uiso
C C 0.454776 0.202071 0.516429 0.1465 Uiso
O O 0.45722 0.19023 0.496361 0.1474 Uiso
CB C 0.477579 0.221488 0.541846 0.1617 Uiso
CG1 C 0.488643 0.237148 0.53438 0.1487 Uiso
CG2 C 0.488681 0.2057 0.546771 0.1367 Uiso
CD1 C 0.500076 0.241859 0.564801 0.1435 Uiso
N N 0.443406 0.201371 0.54227 0.1558 Uiso
CA C 0.434125 0.185787 0.550028 0.1662 Uiso
C C 0.421876 0.180338 0.520374 0.2080 Uiso
O O 0.416173 0.16567 0.519368 0.2050 Uiso
CB C 0.424843 0.187137 0.585982 0.1601 Uiso
CG1 C 0.409374 0.198748 0.583175 0.1570 Uiso
CG2 C 0.420081 0.169719 0.599458 0.1759 Uiso
N N 0.418006 0.192077 0.496308 0.2211 Uiso
CA C 0.406814 0.188435 0.466363 0.2660 Uiso
C C 0.417331 0.18291 0.434274 0.2962 Uiso
O O 0.410367 0.177358 0.407507 0.3195 Uiso
CB C 0.396782 0.204376 0.4567 0.2363 Uiso
OG O 0.385883 0.209227 0.484632 0.2662 Uiso
N N 0.434125 0.184285 0.437928 0.3359 Uiso
CA C 0.446615 0.18035 0.410446 0.3658 Uiso
C C 0.447213 0.161965 0.397393 0.3724 Uiso
O O 0.455807 0.158184 0.371209 0.3886 Uiso
CB C 0.464185 0.185532 0.423922 0.3979 Uiso
CG C 0.477172 0.186831 0.394931 0.4637 Uiso
OD1 O 0.473759 0.195743 0.368323 0.4884 Uiso
OD2 O 0.491049 0.179243 0.39922 0.5027 Uiso
N N 0.438594 0.150392 0.415741 0.3673 Uiso
CA C 0.438772 0.132707 0.404065 0.3511 Uiso
C C 0.445736 0.119708 0.430118 0.3402 Uiso
O O 0.439689 0.105117 0.430435 0.3432 Uiso
N N 0.458303 0.124572 0.451696 0.3047 Uiso
CA C 0.465484 0.112731 0.477642 0.2714 Uiso
C C 0.458366 0.115341 0.514735 0.2159 Uiso
O O 0.463739 0.106976 0.53994 0.1964 Uiso
CB C 0.484785 0.114017 0.478145 0.3312 Uiso
CG C 0.492361 0.111037 0.442085 0.4025 Uiso
OD1 O 0.49068 0.0971723 0.427152 0.4319 Uiso
ND2 N 0.500166 0.12424 0.426967 0.4288 Uiso
N N 0.446118 0.126812 0.517886 0.1817 Uiso
CA C 0.438403 0.13011 0.55196 0.1695 Uiso
C C 0.451351 0.136438 0.578754 0.1593 Uiso
O O 0.463446 0.145299 0.56962 0.1698 Uiso
N N 0.449314 0.131167 0.611875 0.1453 Uiso
CA C 0.460887 0.136909 0.639543 0.1324 Uiso
C C 0.478126 0.128315 0.639278 0.1363 Uiso
O O 0.489292 0.13272 0.660194 0.1215 Uiso
CB C 0.452522 0.135737 0.675841 0.1203 Uiso
CG C 0.439485 0.149832 0.68156 0.1264 Uiso
SD S 0.433259 0.152162 0.726914 0.1517 Uiso
CE C 0.451491 0.163646 0.743991 0.1587 Uiso
N N 0.480342 0.116028 0.61545 0.1417 Uiso
CA C 0.496651 0.107205 0.612326 0.1477 Uiso
C C 0.510351 0.119759 0.60065 0.1435 Uiso
O O 0.525502 0.116016 0.60388 0.1529 Uiso
CB C 0.495506 0.0921049 0.586909 0.1458 Uiso
CG C 0.484327 0.0779342 0.601312 0.1560 Uiso
OD1 O 0.488236 0.0700658 0.628688 0.1634 Uiso
ND2 N 0.470118 0.0748658 0.583573 0.1693 Uiso
N N 0.504864 0.134655 0.587809 0.1455 Uiso
CA C 0.516526 0.148164 0.576927 0.1484 Uiso
C C 0.527106 0.154135 0.608831 0.1567 Uiso
O O 0.54101 0.161151 0.604568 0.1896 Uiso
CB C 0.506633 0.162946 0.561439 0.1583 Uiso
N N 0.520346 0.15164 0.640708 0.1340 Uiso
CA C 0.529207 0.156338 0.673273 0.1364 Uiso
C C 0.537407 0.140423 0.688285 0.1450 Uiso
O O 0.528711 0.129155 0.702185 0.1336 Uiso
CB C 0.517035 0.164232 0.700199 0.1350 Uiso
CG C 0.512286 0.18198 0.690324 0.1339 Uiso
CD1 C 0.521581 0.196393 0.69681 0.1358 Uiso
CD2 C 0.497275 0.187378 0.671976 0.1217 Uiso
NE1 N 0.513203 0.210334 0.683837 0.1346 Uiso
CE2 C 0.498243 0.205229 0.668534 0.1346 Uiso
CE3 C 0.483079 0.178873 0.658076 0.1283 Uiso
CZ2 C 0.485562 0.214841 0.651589 0.1192 Uiso
CZ3 C 0.470462 0.188448 0.641184 0.1279 Uiso
CH2 C 0.471837 0.206247 0.638246 0.1158 Uiso
N N 0.554264 0.139761 0.685929 0.1534 Uiso
CA C 0.563864 0.125094 0.69824 0.1584 Uiso
C C 0.56063 0.12065 0.737213 0.1517 Uiso
O O 0.55816 0.10569 0.74595 0.1600 Uiso
CB C 0.583293 0.127767 0.692389 0.1743 Uiso
CB C 0.583127 0.127564 0.691701 0.1758 Uiso
CG1 C 0.593389 0.112642 0.706845 0.1899 Uiso
CG1 C 0.590143 0.141556 0.715529 0.1706 Uiso
CG2 C 0.587036 0.130275 0.653099 0.1736 Uiso
CG2 C 0.592562 0.110745 0.696599 0.1910 Uiso
N N 0.559726 0.133408 0.760273 0.1550 Uiso
CA C 0.556759 0.129868 0.79779 0.1539 Uiso
C C 0.538947 0.122636 0.803615 0.1472 Uiso
O O 0.536286 0.112362 0.827311 0.1532 Uiso
CB C 0.559484 0.145745 0.820215 0.1617 Uiso
N N 0.526674 0.128226 0.782407 0.1406 Uiso
CA C 0.509498 0.121529 0.786008 0.1239 Uiso
C C 0.509855 0.102736 0.775841 0.1335 Uiso
O O 0.502979 0.0918757 0.794719 0.1246 Uiso
CB C 0.496817 0.13081 0.762021 0.1083 Uiso
CG C 0.479552 0.122827 0.764245 0.1089 Uiso
CD1 C 0.467737 0.12517 0.79043 0.1294 Uiso
CD2 C 0.472461 0.110401 0.740575 0.1194 Uiso
NE1 N 0.453821 0.114921 0.784631 0.1210 Uiso
CE2 C 0.456317 0.105805 0.754184 0.1115 Uiso
CE3 C 0.478114 0.102736 0.709042 0.1160 Uiso
CZ2 C 0.445825 0.0938747 0.737398 0.1244 Uiso
CZ3 C 0.467648 0.0909336 0.692362 0.1170 Uiso
CH2 C 0.451695 0.0866302 0.70666 0.1163 Uiso
N N 0.517723 0.0989547 0.745765 0.1313 Uiso
CA C 0.518703 0.0815119 0.733241 0.1643 Uiso
C C 0.527781 0.069773 0.759797 0.1644 Uiso
O O 0.521746 0.0557551 0.767925 0.1672 Uiso
CB C 0.528049 0.0810408 0.697869 0.1918 Uiso
CG C 0.525349 0.0647438 0.677827 0.2891 Uiso
CD C 0.537865 0.0631905 0.647433 0.3642 Uiso
NE N 0.541379 0.0797803 0.631653 0.4359 Uiso
CZ C 0.556938 0.0859681 0.626596 0.4622 Uiso
NH1 N 0.570446 0.0767629 0.636048 0.4671 Uiso
NH2 N 0.558975 0.101412 0.612882 0.4768 Uiso
N N 0.541837 0.0758589 0.774518 0.1515 Uiso
CA C 0.551679 0.0655205 0.798902 0.1555 Uiso
C C 0.546281 0.0654568 0.837133 0.1505 Uiso
O O 0.549642 0.0530813 0.855799 0.1629 Uiso
CB C 0.570433 0.0704732 0.796731 0.1510 Uiso
CG C 0.578213 0.0657624 0.761597 0.1627 Uiso
OD1 O 0.573209 0.0530813 0.745447 0.1863 Uiso
ND2 N 0.590334 0.0758334 0.749365 0.1570 Uiso
N N 0.537139 0.0785581 0.848571 0.1422 Uiso
CA C 0.53253 0.0799968 0.885664 0.1522 Uiso
C C 0.51384 0.0822758 0.894957 0.1602 Uiso
O O 0.509167 0.0803151 0.925722 0.1820 Uiso
CB C 0.543034 0.0943839 0.901682 0.1487 Uiso
CG C 0.561852 0.0925505 0.892548 0.1620 Uiso
CD C 0.572254 0.107014 0.906315 0.1624 Uiso
NE N 0.574075 0.10653 0.944732 0.1758 Uiso
CZ C 0.5837 0.117442 0.962709 0.1749 Uiso
NH1 N 0.592192 0.129435 0.94542 0.1762 Uiso
NH2 N 0.584744 0.11641 0.99771 0.1843 Uiso
N N 0.503234 0.0862482 0.868878 0.1397 Uiso
CA C 0.485142 0.0888837 0.875497 0.1360 Uiso
C C 0.473912 0.0758843 0.85752 0.1411 Uiso
O O 0.461486 0.0699385 0.873008 0.1624 Uiso
CB C 0.479794 0.106454 0.862815 0.1237 Uiso
SG S 0.491941 0.123273 0.883493 0.1397 Uiso
N N 0.477986 0.0720902 0.824345 0.1408 Uiso
CA C 0.468399 0.0600203 0.802979 0.1515 Uiso
C C 0.465598 0.0433796 0.822598 0.1720 Uiso
O O 0.477783 0.0355366 0.835492 0.1712 Uiso
CB C 0.477935 0.0564808 0.768481 0.1468 Uiso
CG C 0.467699 0.0466517 0.741158 0.1379 Uiso
CD C 0.477834 0.0444872 0.70703 0.1425 Uiso
CE C 0.466808 0.0373064 0.677139 0.1535 Uiso
NZ N 0.47614 0.0367334 0.642588 0.1649 Uiso
N N 0.449428 0.0383759 0.825087 0.2106 Uiso
CA C 0.444743 0.0225118 0.84227 0.2305 Uiso
C C 0.445367 0.0223081 0.882328 0.2501 Uiso
O O 0.444043 0.00871032 0.898399 0.2807 Uiso
N N 0.448321 0.0369754 0.898716 0.2290 Uiso
CA C 0.448843 0.0379685 0.937186 0.2109 Uiso
C C 0.431897 0.0452512 0.949603 0.2156 Uiso
O O 0.421138 0.0500639 0.928105 0.1953 Uiso
CB C 0.463434 0.0496819 0.950265 0.2140 Uiso
OG1 O 0.459627 0.0670483 0.941634 0.1949 Uiso
CG2 C 0.480495 0.0443217 0.933426 0.2004 Uiso
N N 0.429376 0.0460787 0.984234 0.2247 Uiso
CA C 0.413639 0.0530177 0.998213 0.2467 Uiso
C C 0.415345 0.0722812 0.997551 0.2371 Uiso
O O 0.419572 0.0800986 1.02442 0.2465 Uiso
CB C 0.410812 0.0468045 1.03618 0.3074 Uiso
CG C 0.39477 0.0542272 1.05291 0.3655 Uiso
OD1 O 0.38214 0.0575121 1.03369 0.4047 Uiso
OD2 O 0.394872 0.0568373 1.08556 0.4212 Uiso
N N 0.41192 0.0799713 0.967025 0.2135 Uiso
CA C 0.413741 0.0983691 0.963291 0.2119 Uiso
C C 0.400703 0.108988 0.98344 0.2223 Uiso
O O 0.403606 0.124075 0.990191 0.2102 Uiso
CB C 0.414785 0.104009 0.923922 0.2053 Uiso
CG1 C 0.431222 0.0974396 0.907189 0.2012 Uiso
CG2 C 0.399608 0.0976943 0.903614 0.2161 Uiso
N N 0.386494 0.101208 0.993686 0.2329 Uiso
CA C 0.373368 0.110197 1.0136 0.2439 Uiso
C C 0.380739 0.116474 1.0491 0.2342 Uiso
O O 0.375061 0.129384 1.06371 0.2346 Uiso
CB C 0.358013 0.0983181 1.01939 0.2984 Uiso
CG C 0.341754 0.106912 1.0334 0.3892 Uiso
CD C 0.341716 0.109586 1.0737 0.4542 Uiso
OE1 O 0.347089 0.0984073 1.09387 0.4904 Uiso
NE2 N 0.335312 0.124355 1.0855 0.4676 Uiso
N N 0.39365 0.1076 1.06252 0.2253 Uiso
CA C 0.401862 0.112349 1.09578 0.2102 Uiso
C C 0.409144 0.130365 1.09469 0.2190 Uiso
O O 0.410685 0.138691 1.12209 0.2133 Uiso
CB C 0.415803 0.0998332 1.10462 0.2213 Uiso
N N 0.413652 0.136476 1.06319 0.2050 Uiso
CA C 0.420731 0.153639 1.05943 0.2124 Uiso
C C 0.407871 0.167682 1.06649 0.2172 Uiso
O O 0.412557 0.182222 1.07354 0.2196 Uiso
CB C 0.428905 0.155943 1.02292 0.1972 Uiso
CG C 0.444743 0.145949 1.02059 0.2026 Uiso
CD1 C 0.44678 0.130428 1.00483 0.1973 Uiso
CD2 C 0.460531 0.149768 1.03766 0.1997 Uiso
NE1 N 0.462823 0.12424 1.01137 0.1918 Uiso
CE2 C 0.471557 0.135852 1.03149 0.2005 Uiso
CE3 C 0.466438 0.16357 1.05784 0.2063 Uiso
CZ2 C 0.488147 0.135292 1.04486 0.1969 Uiso
CZ3 C 0.482952 0.163009 1.07126 0.2029 Uiso
CH2 C 0.493583 0.148902 1.06462 0.2109 Uiso
N N 0.391562 0.163455 1.06475 0.2180 Uiso
CA C 0.378651 0.176238 1.07155 0.2313 Uiso
C C 0.36858 0.172304 1.10507 0.2434 Uiso
O O 0.357083 0.181904 1.11489 0.2406 Uiso
CB C 0.366696 0.178428 1.03965 0.2376 Uiso
CG1 C 0.358255 0.16152 1.03036 0.2343 Uiso
CG2 C 0.376716 0.185418 1.00796 0.2389 Uiso
CD1 C 0.344173 0.163239 1.00369 0.3045 Uiso
N N 0.373482 0.15877 1.1236 0.2549 Uiso
CA C 0.364455 0.154212 1.15585 0.2955 Uiso
C C 0.365792 0.168242 1.18344 0.2905 Uiso
O O 0.379046 0.176314 1.18725 0.2954 Uiso
CB C 0.370414 0.136934 1.17062 0.3493 Uiso
CG C 0.389015 0.135534 1.18272 0.4296 Uiso
CD C 0.391982 0.142689 1.21968 0.4942 Uiso
NE N 0.408992 0.139252 1.23388 0.5426 Uiso
CZ C 0.423583 0.144612 1.21963 0.5560 Uiso
NH1 N 0.424919 0.147082 1.185 0.5660 Uiso
NH2 N 0.437015 0.147184 1.23997 0.5820 Uiso
N N 0.35143 0.171858 1.20041 0.2965 Uiso
CA C 0.350819 0.184794 1.22771 0.2909 Uiso
C C 0.348005 0.202733 1.2146 0.2890 Uiso
O O 0.344962 0.214332 1.23584 0.3062 Uiso
N N 0.348884 0.205343 1.18002 0.2765 Uiso
CA C 0.346656 0.222442 1.16583 0.2713 Uiso
C C 0.328156 0.227357 1.16075 0.2847 Uiso
O O 0.317512 0.216675 1.15267 0.2960 Uiso
CB C 0.356001 0.224365 1.13059 0.2443 Uiso
SG S 0.377913 0.217006 1.13051 0.2386 Uiso
N N 0.324426 0.243667 1.16528 0.3104 Uiso
CA C 0.307288 0.250173 1.16006 0.3480 Uiso
C C 0.308001 0.257226 1.12241 0.3656 Uiso
O O 0.315742 0.270582 1.11648 0.3831 Uiso
CB C 0.303813 0.264191 1.1873 0.3687 Uiso
CG C 0.28595 0.271817 1.18572 0.4172 Uiso
CD C 0.281965 0.282155 1.21881 0.4414 Uiso
NE N 0.296454 0.292519 1.22996 0.4984 Uiso
CZ C 0.302361 0.293207 1.263 0.5217 Uiso
NH1 N 0.294964 0.284167 1.28855 0.5342 Uiso
NH2 N 0.315883 0.302769 1.27041 0.5447 Uiso
N N 0.300757 0.247957 1.09694 0.3859 Uiso
CA C 0.301406 0.253114 1.05948 0.4166 Uiso
C C 0.285759 0.261708 1.04288 0.4353 Uiso
O O 0.286166 0.277445 1.03877 0.4463 Uiso
CB C 0.306856 0.238141 1.03594 0.4143 Uiso
CG C 0.325521 0.232806 1.03229 0.4250 Uiso
CD1 C 0.336903 0.248212 1.03345 0.4207 Uiso
CD2 C 0.330282 0.220367 1.06078 0.4439 Uiso
OXT O 0.273625 0.252745 1.03194 0.4456 Uiso
N N 0.128262 1.04247 0.726476 0.1693 Uiso
CA C 0.132718 1.03093 0.756447 0.1810 Uiso
C C 0.151918 1.03075 0.762934 0.1810 Uiso
O O 0.161938 1.03043 0.737782 0.1730 Uiso
CB C 0.126607 1.01273 0.748319 0.1916 Uiso
CG C 0.132973 0.999516 0.773816 0.2130 Uiso
CD C 0.126187 0.981946 0.765237 0.2253 Uiso
CD C 0.12662 0.981831 0.763543 0.2173 Uiso
CE C 0.134475 0.968717 0.789066 0.2386 Uiso
CE C 0.135876 0.967966 0.784168 0.2295 Uiso
NZ N 0.126263 0.951695 0.786233 0.2372 Uiso
NZ N 0.133724 0.96901 0.823432 0.2186 Uiso
N N 0.156973 1.03141 0.796453 0.1769 Uiso
CA C 0.17495 1.03077 0.805772 0.1863 Uiso
C C 0.178121 1.01271 0.818904 0.1943 Uiso
O O 0.170762 1.00731 0.845274 0.2191 Uiso
CB C 0.179852 1.04408 0.834366 0.1782 Uiso
CG1 C 0.198619 1.04188 0.845115 0.2006 Uiso
CG2 C 0.177115 1.06204 0.81999 0.1883 Uiso
N N 0.187861 1.0029 0.798835 0.1785 Uiso
CA C 0.191426 0.985345 0.808658 0.1921 Uiso
C C 0.204731 0.983627 0.837358 0.2007 Uiso
O O 0.215464 0.994844 0.842335 0.2040 Uiso
CB C 0.197995 0.975389 0.776622 0.1835 Uiso
CG C 0.184258 0.968081 0.753614 0.1862 Uiso
CD1 C 0.176313 0.978114 0.72788 0.1754 Uiso
CD2 C 0.179521 0.950995 0.756977 0.1838 Uiso
CE1 C 0.163874 0.971213 0.705825 0.1918 Uiso
CE2 C 0.167057 0.943916 0.735055 0.1959 Uiso
CZ C 0.159214 0.95405 0.709346 0.2058 Uiso
N N 0.203496 0.969698 0.856871 0.2119 Uiso
CA C 0.217004 0.965509 0.881626 0.1969 Uiso
C C 0.230296 0.956151 0.860551 0.1854 Uiso
O O 0.22626 0.94939 0.832063 0.1743 Uiso
N N 0.245957 0.955514 0.87265 0.1852 Uiso
CA C 0.259504 0.947213 0.852846 0.1853 Uiso
C C 0.255353 0.928777 0.843156 0.1877 Uiso
O O 0.255417 0.924105 0.811941 0.1782 Uiso
CB C 0.276068 0.94813 0.873815 0.1883 Uiso
CG C 0.291168 0.940312 0.855309 0.1924 Uiso
CD C 0.307287 0.942744 0.876754 0.2280 Uiso
NE N 0.306485 0.935156 0.912153 0.2675 Uiso
CZ C 0.309018 0.918681 0.91946 0.2847 Uiso
NH1 N 0.31252 0.907515 0.893937 0.2699 Uiso
NH2 N 0.308407 0.913359 0.95282 0.2912 Uiso
N N 0.251508 0.918337 0.869818 0.1939 Uiso
CA C 0.247345 0.900359 0.863278 0.1977 Uiso
C C 0.23036 0.897902 0.844401 0.1828 Uiso
O O 0.228132 0.885896 0.824093 0.1891 Uiso
CB C 0.247752 0.890174 0.897909 0.2029 Uiso
SG S 0.268785 0.889588 0.917951 0.2204 Uiso
N N 0.218468 0.909628 0.850172 0.1833 Uiso
CA C 0.201853 0.908584 0.832963 0.1760 Uiso
C C 0.204209 0.910787 0.793169 0.1662 Uiso
O O 0.196353 0.901976 0.771989 0.1558 Uiso
CB C 0.190089 0.922513 0.846836 0.1938 Uiso
CG C 0.172111 0.921647 0.832063 0.2031 Uiso
CD C 0.161544 0.937206 0.841223 0.2181 Uiso
OE1 O 0.169005 0.95046 0.850834 0.2403 Uiso
OE2 O 0.14568 0.936455 0.837967 0.2296 Uiso
N N 0.215171 0.922729 0.783241 0.1602 Uiso
CA C 0.218799 0.92576 0.745936 0.1645 Uiso
C C 0.228565 0.910596 0.730157 0.1674 Uiso
O O 0.224809 0.904854 0.700715 0.1759 Uiso
CB C 0.229151 0.942146 0.741488 0.1612 Uiso
CG C 0.23325 0.94608 0.70286 0.1603 Uiso
CD1 C 0.216699 0.948741 0.681547 0.1643 Uiso
CD2 C 0.244378 0.961728 0.701271 0.1598 Uiso
N N 0.241233 0.904332 0.749616 0.1669 Uiso
CA C 0.251291 0.889664 0.73802 0.1716 Uiso
C C 0.239387 0.874794 0.729389 0.1643 Uiso
O O 0.240584 0.867091 0.701139 0.1726 Uiso
CB C 0.264074 0.88447 0.767144 0.1631 Uiso
N N 0.227546 0.871139 0.75335 0.1706 Uiso
CA C 0.215476 0.857274 0.747869 0.1785 Uiso
C C 0.204323 0.860419 0.715357 0.1791 Uiso
O O 0.201497 0.849011 0.693937 0.1858 Uiso
CB C 0.20445 0.854906 0.780752 0.1886 Uiso
N N 0.19811 0.876016 0.711412 0.1800 Uiso
CA C 0.187364 0.880357 0.681308 0.1717 Uiso
C C 0.197091 0.878511 0.646387 0.1815 Uiso
O O 0.190191 0.872082 0.620228 0.1779 Uiso
CB C 0.180514 0.898526 0.685253 0.1868 Uiso
N N 0.213083 0.884164 0.646016 0.1696 Uiso
CA C 0.223434 0.883158 0.614218 0.1681 Uiso
C C 0.22719 0.864901 0.604687 0.1781 Uiso
O O 0.226502 0.860164 0.573551 0.1923 Uiso
CB C 0.239871 0.892937 0.619302 0.1493 Uiso
CG C 0.23721 0.911945 0.61811 0.1667 Uiso
SD S 0.256754 0.923328 0.623776 0.1804 Uiso
CE C 0.252717 0.942057 0.597141 0.1774 Uiso
N N 0.230577 0.854588 0.631692 0.1916 Uiso
CA C 0.234434 0.836572 0.626741 0.2232 Uiso
C C 0.21913 0.827609 0.610909 0.2221 Uiso
O O 0.220773 0.818263 0.58483 0.2220 Uiso
CB C 0.239247 0.828474 0.662193 0.2449 Uiso
CG C 0.244276 0.809886 0.660181 0.3055 Uiso
CD C 0.255493 0.805493 0.691634 0.3447 Uiso
CE C 0.260726 0.786917 0.691925 0.3925 Uiso
NZ N 0.246619 0.776184 0.705004 0.4345 Uiso
N N 0.204132 0.831428 0.625391 0.2348 Uiso
CA C 0.188192 0.823916 0.613186 0.2449 Uiso
C C 0.18497 0.82878 0.574822 0.2385 Uiso
O O 0.177777 0.818824 0.554568 0.2315 Uiso
CB C 0.173359 0.829913 0.63622 0.2722 Uiso
CG C 0.160398 0.816074 0.643368 0.3560 Uiso
CD C 0.14242 0.82137 0.633413 0.4045 Uiso
NE N 0.138104 0.838635 0.644666 0.4486 Uiso
CZ C 0.124532 0.847076 0.632884 0.4653 Uiso
NH1 N 0.113951 0.839666 0.610141 0.4852 Uiso
NH2 N 0.121718 0.863016 0.643077 0.4870 Uiso
N N 0.190573 0.844084 0.564788 0.2263 Uiso
CA C 0.188485 0.850183 0.528648 0.2263 Uiso
C C 0.202528 0.844759 0.502966 0.2232 Uiso
O O 0.203368 0.851112 0.473048 0.2273 Uiso
CB C 0.185785 0.869382 0.528065 0.2297 Uiso
CG C 0.167948 0.874539 0.536749 0.2690 Uiso
ND1 N 0.162868 0.87883 0.570506 0.2741 Uiso
CD2 C 0.153803 0.875685 0.516231 0.2757 Uiso
CE1 C 0.146354 0.882407 0.570453 0.2829 Uiso
NE2 N 0.140612 0.880574 0.537703 0.2912 Uiso
N N 0.213503 0.833147 0.515039 0.2305 Uiso
CA C 0.226986 0.826119 0.492905 0.2335 Uiso
C C 0.243067 0.836279 0.486127 0.2530 Uiso
O O 0.252272 0.832842 0.460499 0.2501 Uiso
N N 0.246606 0.848731 0.508658 0.2480 Uiso
CA C 0.261885 0.858968 0.504184 0.2401 Uiso
C C 0.278169 0.851125 0.518984 0.2441 Uiso
O O 0.292085 0.855925 0.507838 0.2543 Uiso
CB C 0.2593 0.876767 0.519699 0.2276 Uiso
CG C 0.248847 0.889142 0.497433 0.2211 Uiso
CD1 C 0.249496 0.906598 0.515304 0.2394 Uiso
CD2 C 0.256091 0.890467 0.460154 0.2191 Uiso
N N 0.27687 0.839068 0.543554 0.2381 Uiso
CA C 0.292378 0.83153 0.558195 0.2515 Uiso
C C 0.301876 0.82221 0.52886 0.2462 Uiso
O O 0.295255 0.810306 0.512577 0.2498 Uiso
CB C 0.288584 0.819486 0.589172 0.2764 Uiso
CG C 0.30483 0.81298 0.60797 0.3122 Uiso
OD1 O 0.318847 0.820632 0.604369 0.3095 Uiso
OD2 O 0.303467 0.799917 0.626953 0.3510 Uiso
N N 0.317103 0.828462 0.521155 0.2354 Uiso
CA C 0.328015 0.821345 0.493885 0.2371 Uiso
C C 0.321661 0.824528 0.456183 0.2204 Uiso
O O 0.327862 0.81671 0.431004 0.2197 Uiso
CB C 0.331108 0.802361 0.50061 0.2951 Uiso
CG C 0.337882 0.798962 0.537676 0.3612 Uiso
OD1 O 0.351912 0.804513 0.547075 0.4034 Uiso
ND2 N 0.327747 0.790342 0.55936 0.4022 Uiso
N N 0.30968 0.836356 0.451788 0.1991 Uiso
CA C 0.303493 0.840404 0.416495 0.1823 Uiso
C C 0.318364 0.848604 0.396453 0.1953 Uiso
O O 0.325863 0.860992 0.40887 0.1806 Uiso
CB C 0.288342 0.852563 0.417819 0.1697 Uiso
CG C 0.280359 0.854651 0.381891 0.1859 Uiso
CD1 C 0.268709 0.842734 0.369183 0.1901 Uiso
CD2 C 0.285044 0.868071 0.359757 0.1835 Uiso
CE1 C 0.262037 0.844071 0.33532 0.2180 Uiso
CE2 C 0.278538 0.869535 0.325895 0.1977 Uiso
CZ C 0.267041 0.857529 0.313822 0.2261 Uiso
OH O 0.26079 0.858828 0.279985 0.2661 Uiso
N N 0.322769 0.841219 0.365979 0.2018 Uiso
CA C 0.337143 0.84691 0.343819 0.2216 Uiso
C C 0.353708 0.846096 0.364602 0.1964 Uiso
O O 0.365447 0.855937 0.357692 0.2080 Uiso
CB C 0.33461 0.864952 0.329178 0.2504 Uiso
CG C 0.32035 0.866607 0.302887 0.3347 Uiso
CD C 0.323928 0.856816 0.269342 0.4148 Uiso
NE N 0.308063 0.852754 0.2511 0.4937 Uiso
CZ C 0.306357 0.85171 0.216178 0.5319 Uiso
NH1 N 0.319446 0.855301 0.194918 0.5430 Uiso
NH2 N 0.291232 0.847853 0.202463 0.5658 Uiso
N N 0.354319 0.834675 0.390522 0.1766 Uiso
CA C 0.369419 0.832651 0.412259 0.1796 Uiso
C C 0.371443 0.844924 0.443263 0.1734 Uiso
O O 0.384697 0.844835 0.461028 0.1793 Uiso
N N 0.358635 0.855505 0.450279 0.1652 Uiso
CA C 0.359845 0.8676 0.47972 0.1484 Uiso
C C 0.350741 0.860827 0.511994 0.1474 Uiso
O O 0.335234 0.859311 0.51218 0.1455 Uiso
CB C 0.352613 0.884915 0.469368 0.1386 Uiso
CG C 0.363371 0.893751 0.441965 0.1211 Uiso
CD1 C 0.377045 0.903912 0.452079 0.1223 Uiso
CD2 C 0.359883 0.891982 0.405852 0.1229 Uiso
CE1 C 0.386976 0.912213 0.426927 0.1211 Uiso
CE2 C 0.369814 0.900232 0.380488 0.1268 Uiso
CZ C 0.383361 0.910379 0.391396 0.1189 Uiso
OH O 0.392999 0.919177 0.367118 0.1349 Uiso
N N 0.360519 0.857172 0.539662 0.1568 Uiso
CA C 0.353211 0.850361 0.572068 0.1636 Uiso
C C 0.341281 0.863309 0.588616 0.1682 Uiso
O O 0.342695 0.878664 0.581891 0.1557 Uiso
CB C 0.367153 0.845332 0.597962 0.1679 Uiso
OG O 0.377758 0.859362 0.60654 0.2001 Uiso
N N 0.329822 0.856969 0.610723 0.1716 Uiso
CA C 0.317167 0.867409 0.628303 0.1644 Uiso
C C 0.324233 0.883044 0.64689 0.1539 Uiso
O O 0.316428 0.896667 0.645778 0.1463 Uiso
CB C 0.307325 0.856383 0.654462 0.1804 Uiso
CG C 0.289717 0.862087 0.666349 0.1801 Uiso
CD1 C 0.278449 0.864964 0.634366 0.1971 Uiso
CD2 C 0.282141 0.848438 0.690257 0.1859 Uiso
N N 0.338862 0.881261 0.664125 0.1460 Uiso
CA C 0.346387 0.895687 0.682579 0.1398 Uiso
C C 0.349557 0.910927 0.658645 0.1308 Uiso
O O 0.348513 0.925416 0.670215 0.1491 Uiso
N N 0.353351 0.907655 0.625073 0.1168 Uiso
CA C 0.356496 0.921405 0.599789 0.1234 Uiso
C C 0.340441 0.931884 0.59407 0.1265 Uiso
O O 0.34095 0.94748 0.593355 0.1307 Uiso
CB C 0.362353 0.914301 0.564179 0.1384 Uiso
CG C 0.380763 0.90917 0.564523 0.1406 Uiso
OD1 O 0.391955 0.919916 0.563093 0.1416 Uiso
ND2 N 0.384048 0.892657 0.567409 0.1581 Uiso
N N 0.326143 0.923111 0.590284 0.1178 Uiso
CA C 0.309859 0.931375 0.584247 0.1222 Uiso
C C 0.303913 0.941382 0.616177 0.1225 Uiso
O O 0.297088 0.955374 0.612471 0.1310 Uiso
CB C 0.29663 0.918108 0.573657 0.1203 Uiso
CG C 0.301163 0.909756 0.539794 0.1170 Uiso
CD1 C 0.307987 0.893942 0.535346 0.1325 Uiso
CD2 C 0.299227 0.916822 0.505031 0.1335 Uiso
NE1 N 0.310368 0.890658 0.499921 0.1298 Uiso
CE2 C 0.30511 0.904472 0.4807 0.1330 Uiso
CE3 C 0.293052 0.932457 0.492031 0.1458 Uiso
CZ2 C 0.304931 0.907171 0.444057 0.1555 Uiso
CZ3 C 0.292887 0.935118 0.455627 0.1663 Uiso
CH2 C 0.298833 0.922539 0.432063 0.1686 Uiso
N N 0.306536 0.934303 0.647578 0.1194 Uiso
CA C 0.301316 0.942935 0.679932 0.1183 Uiso
C C 0.312405 0.958583 0.685624 0.1137 Uiso
O O 0.306128 0.972257 0.694361 0.1269 Uiso
CB C 0.302118 0.930853 0.712153 0.1402 Uiso
CG1 C 0.298018 0.940733 0.746466 0.1522 Uiso
CG2 C 0.289602 0.915982 0.706752 0.1294 Uiso
N N 0.328829 0.956673 0.679402 0.1046 Uiso
CA C 0.340505 0.970856 0.683188 0.1153 Uiso
C C 0.335768 0.985014 0.656845 0.1165 Uiso
O O 0.335641 1.00008 0.666138 0.1212 Uiso
CB C 0.358686 0.964758 0.67641 0.1232 Uiso
SG S 0.374677 0.981144 0.682182 0.1411 Uiso
N N 0.331707 0.980138 0.624147 0.1141 Uiso
CA C 0.326945 0.99259 0.597274 0.1324 Uiso
C C 0.310966 1.00223 0.608976 0.1311 Uiso
O O 0.31047 1.01791 0.607387 0.1432 Uiso
CB C 0.323953 0.983932 0.561822 0.1340 Uiso
N N 0.298273 0.992934 0.622082 0.1211 Uiso
CA C 0.282523 1.00087 0.633996 0.1180 Uiso
C C 0.285872 1.01287 0.664973 0.1258 Uiso
O O 0.2785 1.02671 0.666958 0.1334 Uiso
CB C 0.269536 0.987344 0.644374 0.1098 Uiso
N N 0.296847 1.00763 0.689278 0.1213 Uiso
CA C 0.300921 1.01822 0.719804 0.1370 Uiso
C C 0.307771 1.03547 0.708552 0.1444 Uiso
O O 0.301647 1.04883 0.720202 0.1546 Uiso
CB C 0.314289 1.00955 0.743103 0.1579 Uiso
CG C 0.32161 1.02103 0.771883 0.1791 Uiso
CD C 0.308191 1.02611 0.798703 0.2202 Uiso
CE C 0.315703 1.03769 0.826768 0.2466 Uiso
NZ N 0.302601 1.04221 0.853349 0.2831 Uiso
N N 0.320515 1.03514 0.685598 0.1388 Uiso
CA C 0.328295 1.05089 0.674531 0.1412 Uiso
C C 0.31914 1.06076 0.646387 0.1408 Uiso
O O 0.321814 1.07598 0.643262 0.1659 Uiso
CB C 0.347113 1.0481 0.666323 0.1483 Uiso
CG C 0.357082 1.04258 0.698332 0.1394 Uiso
CD1 C 0.356127 1.05202 0.729759 0.1392 Uiso
CD2 C 0.366618 1.02769 0.697882 0.1524 Uiso
CE1 C 0.364543 1.04657 0.760498 0.1650 Uiso
CE2 C 0.375072 1.0221 0.728383 0.1812 Uiso
CZ C 0.374041 1.0316 0.759783 0.1622 Uiso
N N 0.308127 1.05242 0.626424 0.1194 Uiso
CA C 0.298629 1.06144 0.599365 0.1277 Uiso
C C 0.283096 1.07045 0.614536 0.1392 Uiso
O O 0.279951 1.08518 0.606249 0.1393 Uiso
CB C 0.292594 1.04918 0.57048 0.1229 Uiso
CG C 0.306625 1.04297 0.545513 0.1389 Uiso
CD C 0.313436 1.05692 0.521155 0.1560 Uiso
OE1 O 0.305606 1.07074 0.519514 0.1619 Uiso
OE2 O 0.326512 1.05414 0.503337 0.1692 Uiso
N N 0.273814 1.06183 0.637967 0.1302 Uiso
CA C 0.257874 1.06878 0.651947 0.1364 Uiso
C C 0.255328 1.06819 0.691793 0.1415 Uiso
O O 0.24187 1.07339 0.704766 0.1387 Uiso
CB C 0.243347 1.05845 0.636008 0.1336 Uiso
OG O 0.243665 1.04163 0.650093 0.1337 Uiso
N N 0.267741 1.0612 0.710829 0.1437 Uiso
CA C 0.266621 1.0589 0.749087 0.1654 Uiso
C C 0.251432 1.04725 0.757136 0.1496 Uiso
O O 0.242506 1.0495 0.783294 0.1498 Uiso
CB C 0.265297 1.07592 0.768917 0.2099 Uiso
CG C 0.271752 1.07465 0.806593 0.2439 Uiso
OD1 O 0.281823 1.06333 0.815383 0.2777 Uiso
ND2 N 0.266201 1.08632 0.829097 0.2832 Uiso
N N 0.248554 1.0351 0.733281 0.1368 Uiso
CA C 0.235007 1.02241 0.735928 0.1399 Uiso
C C 0.21703 1.02977 0.733334 0.1422 Uiso
O O 0.204769 1.02152 0.744215 0.1474 Uiso
CB C 0.23637 1.01249 0.770824 0.1500 Uiso
CG C 0.252756 1.00294 0.775722 0.1397 Uiso
CD1 C 0.261006 0.995455 0.74726 0.1360 Uiso
CD2 C 0.259427 1.00087 0.809585 0.1515 Uiso
CE1 C 0.275661 0.98574 0.752476 0.1522 Uiso
CE2 C 0.273954 0.991266 0.815198 0.1600 Uiso
CZ C 0.282103 0.98369 0.786445 0.1460 Uiso
N N 0.215451 1.04507 0.718798 0.1334 Uiso
CA C 0.198912 1.05351 0.715621 0.1339 Uiso
C C 0.192253 1.05169 0.677972 0.1250 Uiso
O O 0.199689 1.05864 0.653111 0.1312 Uiso
CB C 0.200975 1.07238 0.72502 0.1308 Uiso
CG C 0.184245 1.0821 0.725259 0.1460 Uiso
OD1 O 0.170469 1.07512 0.71864 0.1475 Uiso
ND2 N 0.185416 1.09848 0.733228 0.1855 Uiso
N N 0.177917 1.04289 0.673975 0.1274 Uiso
CA C 0.170392 1.04019 0.639185 0.1308 Uiso
C C 0.164421 1.05658 0.62187 0.1203 Uiso
O O 0.162817 1.05731 0.58994 0.1235 Uiso
CB C 0.154936 1.02814 0.640668 0.1343 Uiso
OG1 O 0.141631 1.03566 0.661372 0.1451 Uiso
CG2 C 0.159927 1.01114 0.656739 0.1443 Uiso
N N 0.161327 1.06969 0.643209 0.1225 Uiso
CA C 0.154783 1.08583 0.629468 0.1253 Uiso
C C 0.168139 1.09897 0.619328 0.1374 Uiso
O O 0.163925 1.11312 0.608473 0.1519 Uiso
CB C 0.142255 1.09355 0.656156 0.1386 Uiso
CG C 0.126709 1.0824 0.663411 0.1349 Uiso
CD C 0.112525 1.09221 0.681229 0.1553 Uiso
OE1 O 0.103537 1.10215 0.664231 0.1893 Uiso
NE2 N 0.110858 1.09 0.715727 0.1553 Uiso
N N 0.184245 1.09422 0.621976 0.1337 Uiso
CA C 0.197932 1.10601 0.61345 0.1450 Uiso
C C 0.198135 1.11129 0.574531 0.1311 Uiso
O O 0.195614 1.1008 0.550755 0.1225 Uiso
CB C 0.215094 1.09819 0.623617 0.1411 Uiso
N N 0.200376 1.12778 0.568494 0.1230 Uiso
CA C 0.20184 1.13459 0.53299 0.1349 Uiso
C C 0.2161 1.14755 0.533864 0.1327 Uiso
O O 0.218952 1.15608 0.560604 0.1519 Uiso
CB C 0.185543 1.14372 0.520202 0.1494 Uiso
OG1 O 0.181189 1.15701 0.544666 0.1681 Uiso
CG2 C 0.170762 1.13142 0.516283 0.1473 Uiso
N N 0.225255 1.14896 0.504661 0.1375 Uiso
CA C 0.238878 1.16135 0.502039 0.1522 Uiso
C C 0.240444 1.16711 0.463861 0.1475 Uiso
O O 0.241093 1.15663 0.43998 0.1440 Uiso
CB C 0.255519 1.15368 0.51533 0.1909 Uiso
CG C 0.255442 1.15082 0.555468 0.2229 Uiso
OD1 O 0.253176 1.13659 0.568203 0.2591 Uiso
ND2 N 0.257441 1.16454 0.575351 0.2258 Uiso
N N 0.240457 1.18386 0.458301 0.1598 Uiso
CA C 0.241768 1.19123 0.42277 0.1776 Uiso
C C 0.260344 1.19246 0.411809 0.1858 Uiso
O O 0.271268 1.19677 0.433361 0.1988 Uiso
CB C 0.23418 1.20922 0.422188 0.2094 Uiso
CG C 0.230564 1.21616 0.38528 0.2314 Uiso
CD C 0.213312 1.21014 0.37371 0.2910 Uiso
NE N 0.209785 1.21318 0.336326 0.3370 Uiso
CZ C 0.199905 1.22567 0.324041 0.3282 Uiso
NH1 N 0.192699 1.2366 0.346228 0.3320 Uiso
NH2 N 0.195958 1.22621 0.289887 0.3146 Uiso
N N 0.263756 1.18887 0.378238 0.1940 Uiso
CA C 0.280919 1.18976 0.363755 0.2195 Uiso
C C 0.28223 1.20623 0.342919 0.2261 Uiso
O O 0.269307 1.21332 0.332143 0.2366 Uiso
CB C 0.284229 1.17443 0.339847 0.2324 Uiso
CG C 0.281988 1.15749 0.359201 0.2392 Uiso
OD1 O 0.273152 1.14601 0.346652 0.2750 Uiso
ND2 N 0.289844 1.15601 0.389966 0.2646 Uiso
N N 0.297763 1.21212 0.336114 0.2624 Uiso
CA C 0.300539 1.22816 0.316787 0.2837 Uiso
C C 0.293791 1.2279 0.279138 0.2736 Uiso
O O 0.288405 1.24108 0.265529 0.2956 Uiso
CB C 0.319573 1.23328 0.315887 0.3035 Uiso
OG1 O 0.329402 1.21995 0.300028 0.3435 Uiso
CG2 C 0.325926 1.23631 0.353059 0.3161 Uiso
N N 0.293995 1.21302 0.262405 0.2570 Uiso
CA C 0.28759 1.21155 0.226451 0.2524 Uiso
C C 0.268098 1.21191 0.225259 0.2462 Uiso
O O 0.260599 1.21036 0.196718 0.2660 Uiso
CB C 0.29444 1.1955 0.208368 0.2517 Uiso
CG C 0.288533 1.17934 0.225815 0.2769 Uiso
OD1 O 0.280091 1.18007 0.253536 0.3011 Uiso
OD2 O 0.29239 1.16555 0.212074 0.3062 Uiso
N N 0.259886 1.21334 0.255971 0.2215 Uiso
CA C 0.241462 1.21405 0.256739 0.1920 Uiso
C C 0.232652 1.19724 0.264285 0.1890 Uiso
O O 0.217182 1.19684 0.270242 0.1967 Uiso
N N 0.242163 1.18328 0.263332 0.1648 Uiso
CA C 0.234753 1.16676 0.270983 0.1505 Uiso
C C 0.232983 1.16562 0.311306 0.1407 Uiso
O O 0.239336 1.17659 0.330528 0.1508 Uiso
CB C 0.246313 1.15269 0.257454 0.1541 Uiso
OG O 0.262088 1.1531 0.275511 0.1748 Uiso
N N 0.224223 1.15259 0.324121 0.1293 Uiso
CA C 0.221791 1.15052 0.362193 0.1318 Uiso
C C 0.224567 1.13181 0.370824 0.1286 Uiso
O O 0.221028 1.12089 0.348505 0.1307 Uiso
CB C 0.203508 1.15575 0.373154 0.1405 Uiso
OG1 O 0.200618 1.1733 0.363861 0.1312 Uiso
CG2 C 0.20072 1.15343 0.413027 0.1417 Uiso
N N 0.231837 1.12844 0.40196 0.1170 Uiso
CA C 0.234995 1.11118 0.414774 0.1273 Uiso
C C 0.220506 1.10709 0.439874 0.1216 Uiso
O O 0.215731 1.11778 0.461584 0.1179 Uiso
CB C 0.251877 1.11022 0.434155 0.1384 Uiso
CG C 0.266748 1.113 0.410009 0.1738 Uiso
OD1 O 0.265068 1.11046 0.377788 0.1830 Uiso
OD2 O 0.28046 1.11761 0.423326 0.2647 Uiso
N N 0.214101 1.09144 0.437676 0.1237 Uiso
CA C 0.199396 1.08608 0.458222 0.1160 Uiso
C C 0.201229 1.06987 0.478529 0.1253 Uiso
O O 0.207697 1.05715 0.464999 0.1321 Uiso
CB C 0.184385 1.08292 0.433387 0.1165 Uiso
CG C 0.178108 1.09843 0.414457 0.1212 Uiso
CD1 C 0.185645 1.10378 0.382977 0.1246 Uiso
CD2 C 0.164752 1.10806 0.428304 0.1211 Uiso
CE1 C 0.180107 1.11834 0.365794 0.1226 Uiso
CE2 C 0.159112 1.12258 0.411333 0.1369 Uiso
CZ C 0.166904 1.12756 0.380144 0.1310 Uiso
OH O 0.161454 1.1419 0.363199 0.1424 Uiso
N N 0.194558 1.0702 0.510591 0.1273 Uiso
CA C 0.193959 1.05495 0.53164 0.1343 Uiso
C C 0.209301 1.04922 0.551867 0.1197 Uiso
O O 0.222695 1.05736 0.552714 0.1213 Uiso
N N 0.20715 1.03408 0.56635 0.1311 Uiso
CA C 0.219652 1.0261 0.588457 0.1436 Uiso
C C 0.23679 1.02357 0.569791 0.1348 Uiso
O O 0.250107 1.02453 0.58671 0.1417 Uiso
CB C 0.211975 1.00957 0.60474 0.1763 Uiso
CG1 C 0.221575 1.00483 0.638444 0.2052 Uiso
CG2 C 0.211122 0.99534 0.577099 0.1724 Uiso
CD1 C 0.211682 0.993545 0.662855 0.2457 Uiso
N N 0.236484 1.02117 0.534949 0.1272 Uiso
CA C 0.252119 1.01892 0.515119 0.1381 Uiso
C C 0.2559 1.03399 0.491555 0.1377 Uiso
O O 0.266608 1.03304 0.467912 0.1358 Uiso
CB C 0.251801 1.00228 0.49415 0.1672 Uiso
CG C 0.254016 0.986453 0.517343 0.1816 Uiso
CD1 C 0.250935 0.970474 0.495632 0.1910 Uiso
CD2 C 0.271777 0.986606 0.533758 0.1958 Uiso
N N 0.246542 1.04785 0.497062 0.1260 Uiso
CA C 0.249458 1.06346 0.477152 0.1254 Uiso
C C 0.251342 1.06083 0.4372 0.1241 Uiso
O O 0.263985 1.06602 0.421393 0.1408 Uiso
CB C 0.265118 1.07253 0.492376 0.1211 Uiso
CG C 0.261859 1.08007 0.529071 0.1299 Uiso
CD C 0.249407 1.09471 0.527589 0.1340 Uiso
OE1 O 0.254347 1.10911 0.520387 0.1299 Uiso
NE2 N 0.233021 1.09101 0.533281 0.1367 Uiso
N N 0.238445 1.05313 0.421208 0.1288 Uiso
CA C 0.238356 1.04968 0.383506 0.1397 Uiso
C C 0.234485 1.06608 0.363199 0.1512 Uiso
O O 0.222632 1.07568 0.371857 0.1360 Uiso
CB C 0.226095 1.03513 0.375458 0.1549 Uiso
CG1 C 0.233849 1.0186 0.389728 0.1386 Uiso
CG2 C 0.222263 1.03408 0.335982 0.1688 Uiso
CD1 C 0.222059 1.00358 0.388219 0.1520 Uiso
N N 0.245053 1.0693 0.336697 0.1559 Uiso
CA C 0.244391 1.08494 0.315887 0.1686 Uiso
C C 0.231162 1.08579 0.286022 0.1624 Uiso
O O 0.229532 1.07396 0.264523 0.1755 Uiso
CB C 0.262457 1.0886 0.302516 0.1681 Uiso
CG C 0.263871 1.10561 0.284989 0.1579 Uiso
CG C 0.26466 1.10677 0.289384 0.1857 Uiso
OD1 O 0.263209 1.10668 0.252847 0.1703 Uiso
OD1 O 0.252386 1.11553 0.28115 0.2087 Uiso
ND2 N 0.265602 1.11904 0.305799 0.1479 Uiso
ND2 N 0.280499 1.11218 0.285969 0.2042 Uiso
N N 0.22225 1.10026 0.284115 0.1525 Uiso
CA C 0.209034 1.10332 0.257639 0.1606 Uiso
C C 0.215833 1.10659 0.220096 0.1678 Uiso
O O 0.20608 1.10629 0.1946 0.1844 Uiso
CB C 0.197855 1.11828 0.269236 0.1408 Uiso
OG O 0.207302 1.13369 0.269368 0.1389 Uiso
N N 0.232346 1.11004 0.216919 0.1969 Uiso
CA C 0.240329 1.11317 0.182421 0.2401 Uiso
C C 0.239476 1.09726 0.159413 0.2418 Uiso
O O 0.237324 1.09849 0.127113 0.2457 Uiso
CB C 0.258982 1.11866 0.187187 0.2752 Uiso
CG C 0.269587 1.12014 0.153642 0.3651 Uiso
CD C 0.264724 1.13549 0.131243 0.4343 Uiso
NE N 0.266506 1.15164 0.150385 0.4868 Uiso
CZ C 0.257594 1.16563 0.143025 0.5105 Uiso
NH1 N 0.246224 1.16557 0.116787 0.5375 Uiso
NH2 N 0.259975 1.17967 0.161929 0.5081 Uiso
N N 0.239871 1.08234 0.17612 0.2229 Uiso
CA C 0.239591 1.06654 0.156077 0.2266 Uiso
C C 0.226833 1.05323 0.166562 0.2006 Uiso
O O 0.220276 1.04405 0.14411 0.2104 Uiso
CB C 0.256792 1.05741 0.159308 0.2708 Uiso
CG C 0.271968 1.06826 0.154621 0.3432 Uiso
CD1 C 0.281836 1.07518 0.180833 0.3688 Uiso
CD2 C 0.279124 1.07364 0.121871 0.3807 Uiso
NE1 N 0.29472 1.08463 0.166059 0.3982 Uiso
CE2 C 0.293358 1.08393 0.129946 0.4047 Uiso
CE3 C 0.274858 1.07084 0.0863132 0.4112 Uiso
CZ2 C 0.303467 1.09148 0.103602 0.4475 Uiso
CZ3 C 0.284853 1.07833 0.0600755 0.4467 Uiso
CH2 C 0.299011 1.08854 0.068892 0.4567 Uiso
N N 0.222199 1.05275 0.200795 0.1881 Uiso
CA C 0.213439 1.0372 0.212604 0.1692 Uiso
C C 0.194519 1.03935 0.2206 0.1639 Uiso
O O 0.185225 1.02651 0.220467 0.1678 Uiso
CB C 0.222122 1.03061 0.245434 0.1720 Uiso
CG C 0.241106 1.02856 0.238577 0.1662 Uiso
CD1 C 0.253596 1.03874 0.250385 0.1674 Uiso
CD2 C 0.248656 1.01535 0.217952 0.1654 Uiso
NE1 N 0.269231 1.03228 0.237226 0.1772 Uiso
CE2 C 0.266137 1.01842 0.217952 0.1763 Uiso
CE3 C 0.242226 1.00122 0.199286 0.1863 Uiso
CZ2 C 0.277825 1.008 0.199763 0.1764 Uiso
CZ3 C 0.254029 0.990858 0.181256 0.1783 Uiso
CH2 C 0.271115 0.994156 0.181521 0.1836 Uiso
N N 0.188013 1.05442 0.228013 0.1633 Uiso
CA C 0.170074 1.05631 0.235876 0.1549 Uiso
C C 0.163861 1.07317 0.221182 0.1595 Uiso
O O 0.174008 1.08452 0.212498 0.1591 Uiso
CB C 0.166993 1.05518 0.275908 0.1459 Uiso
SG S 0.177777 1.0716 0.30196 0.1410 Uiso
N N 0.147156 1.07453 0.217502 0.1568 Uiso
CA C 0.139441 1.08991 0.203787 0.1687 Uiso
C C 0.13184 1.10096 0.23307 0.1527 Uiso
O O 0.120954 1.09497 0.253165 0.1487 Uiso
CB C 0.125397 1.0855 0.177232 0.1833 Uiso
CG C 0.117733 1.10131 0.160181 0.2379 Uiso
OD1 O 0.126925 1.11323 0.150544 0.2651 Uiso
ND2 N 0.100914 1.10173 0.157216 0.2969 Uiso
N N 0.13776 1.1168 0.235956 0.1345 Uiso
CA C 0.130592 1.12844 0.261981 0.1334 Uiso
C C 0.121973 1.14358 0.244454 0.1484 Uiso
O O 0.11646 1.15546 0.26214 0.1629 Uiso
CB C 0.14377 1.13431 0.289093 0.1384 Uiso
CG C 0.15831 1.14444 0.273154 0.1254 Uiso
OD1 O 0.158475 1.14837 0.241039 0.1456 Uiso
OD2 O 0.170087 1.1484 0.293647 0.1411 Uiso
N N 0.120941 1.14303 0.209427 0.1682 Uiso
CA C 0.112869 1.15659 0.189649 0.1873 Uiso
C C 0.122087 1.17359 0.188934 0.2126 Uiso
O O 0.115123 1.18595 0.174902 0.2449 Uiso
N N 0.137569 1.17458 0.203099 0.1858 Uiso
CA C 0.146711 1.19075 0.203046 0.2021 Uiso
C C 0.165796 1.18935 0.196295 0.2080 Uiso
O O 0.175765 1.19999 0.208818 0.2351 Uiso
CB C 0.143693 1.20029 0.23765 0.2028 Uiso
CG C 0.151383 1.19171 0.269474 0.2124 Uiso
CD C 0.152224 1.20416 0.299472 0.2328 Uiso
NE N 0.163784 1.19856 0.327165 0.2449 Uiso
CZ C 0.163517 1.20451 0.360155 0.2663 Uiso
NH1 N 0.152173 1.21642 0.369103 0.2798 Uiso
NH2 N 0.174518 1.19861 0.384115 0.2381 Uiso
N N 0.170991 1.17639 0.176676 0.2020 Uiso
CA C 0.188892 1.17415 0.167992 0.1992 Uiso
C C 0.189057 1.17237 0.127722 0.2311 Uiso
O O 0.188434 1.15828 0.113531 0.2404 Uiso
CB C 0.196327 1.15793 0.185492 0.1899 Uiso
OG1 O 0.192088 1.15779 0.222479 0.1665 Uiso
CG2 C 0.215604 1.15742 0.181415 0.1690 Uiso
N N 0.188421 1.18675 0.108818 0.2617 Uiso
CA C 0.188383 1.18731 0.0700835 0.2875 Uiso
C C 0.201662 1.17587 0.0533241 0.3092 Uiso
O O 0.216431 1.17546 0.0647353 0.3247 Uiso
CB C 0.19224 1.20589 0.0626172 0.3026 Uiso
CG C 0.182984 1.21465 0.0922174 0.3033 Uiso
CD C 0.187988 1.20406 0.123777 0.2717 Uiso
N N 0.196098 1.16627 0.0268217 0.3307 Uiso
CA C 0.207519 1.15478 0.00828847 0.3540 Uiso
C C 0.214853 1.14062 0.0310843 0.3620 Uiso
O O 0.229532 1.13566 0.0262392 0.3998 Uiso
N N 0.205049 1.13467 0.0567395 0.3451 Uiso
CA C 0.210829 1.12098 0.0795354 0.3369 Uiso
C C 0.202401 1.10448 0.0674623 0.3341 Uiso
O O 0.189643 1.10459 0.0482672 0.3298 Uiso
CB C 0.206373 1.12461 0.118296 0.3383 Uiso
OG O 0.188637 1.12289 0.124783 0.3403 Uiso
N N 0.210027 1.09032 0.077788 0.3168 Uiso
CA C 0.20333 1.07373 0.0685743 0.3142 Uiso
C C 0.193857 1.06738 0.100928 0.2894 Uiso
O O 0.194749 1.07503 0.129681 0.2923 Uiso
CB C 0.217832 1.06157 0.0589106 0.3434 Uiso
CG C 0.227623 1.06682 0.0257626 0.4111 Uiso
CD C 0.222479 1.05614 -0.00637924 0.4896 Uiso
NE N 0.23143 1.03972 -0.00733237 0.5484 Uiso
CZ C 0.227432 1.02678 -0.0286456 0.5798 Uiso
NH1 N 0.214458 1.02798 -0.0511237 0.5775 Uiso
NH2 N 0.236484 1.0125 -0.0275336 0.5959 Uiso
N N 0.184385 1.05369 0.0959505 0.2522 Uiso
CA C 0.174632 1.04585 0.124253 0.2289 Uiso
C C 0.177879 1.02688 0.119541 0.2151 Uiso
O O 0.166191 1.01693 0.113028 0.2059 Uiso
CB C 0.155712 1.05002 0.120203 0.2168 Uiso
CG C 0.14489 1.04231 0.149273 0.2053 Uiso
OD1 O 0.151383 1.03449 0.174002 0.2135 Uiso
ND2 N 0.128224 1.04423 0.146017 0.2076 Uiso
N N 0.19401 1.02203 0.12285 0.2139 Uiso
CA C 0.199205 1.00437 0.117926 0.2149 Uiso
C C 0.190713 0.991444 0.142072 0.2073 Uiso
O O 0.189032 0.976624 0.132196 0.2295 Uiso
CB C 0.218596 1.00283 0.119249 0.2361 Uiso
CG C 0.227228 1.01231 0.0887755 0.2600 Uiso
CD1 C 0.24653 1.01197 0.092694 0.2660 Uiso
CD2 C 0.221715 1.00419 0.0538537 0.2847 Uiso
N N 0.185098 0.996766 0.173287 0.1904 Uiso
CA C 0.176427 0.984874 0.196692 0.1871 Uiso
C C 0.157266 0.985002 0.190708 0.1983 Uiso
O O 0.147984 0.97516 0.20707 0.2025 Uiso
CB C 0.180616 0.988427 0.235506 0.1777 Uiso
SG S 0.202401 0.982455 0.245778 0.1852 Uiso
N N 0.151358 0.996295 0.167621 0.2138 Uiso
CA C 0.133291 0.99753 0.159202 0.2447 Uiso
C C 0.121947 0.999936 0.190973 0.2314 Uiso
O O 0.109661 0.990489 0.196453 0.2192 Uiso
CB C 0.127422 0.981946 0.138497 0.3143 Uiso
CG C 0.126161 0.985562 0.0996042 0.3945 Uiso
OD1 O 0.11553 0.9959 0.0882725 0.4514 Uiso
ND2 N 0.137353 0.97777 0.0788205 0.4258 Uiso
N N 0.125919 1.01287 0.211836 0.2106 Uiso
CA C 0.115976 1.01655 0.243342 0.2206 Uiso
C C 0.116765 1.03529 0.252635 0.2016 Uiso
O O 0.128657 1.04433 0.24223 0.1809 Uiso
CB C 0.12294 1.00745 0.277285 0.2246 Uiso
CG1 C 0.142216 1.00992 0.280171 0.2457 Uiso
CG2 C 0.11702 0.98914 0.279429 0.2532 Uiso
CD1 C 0.149397 1.00615 0.316575 0.2764 Uiso
N N 0.103231 1.04174 0.26958 0.1902 Uiso
CA C 0.103804 1.0597 0.2798 0.1778 Uiso
C C 0.116243 1.0597 0.3112 0.1539 Uiso
O O 0.117083 1.04732 0.331481 0.1439 Uiso
CB C 0.0855081 1.06337 0.291502 0.1872 Uiso
CG C 0.0785946 1.04615 0.302251 0.2220 Uiso
CD C 0.0861574 1.03439 0.274902 0.2067 Uiso
N N 0.126391 1.07304 0.31443 0.1383 Uiso
CA C 0.13869 1.07386 0.343236 0.1279 Uiso
C C 0.130147 1.07269 0.379429 0.1375 Uiso
O O 0.137697 1.06618 0.404925 0.1465 Uiso
CB C 0.149295 1.09005 0.34035 0.1203 Uiso
SG S 0.161378 1.09153 0.299339 0.1294 Uiso
N N 0.114295 1.07852 0.381679 0.1349 Uiso
CA C 0.105026 1.07782 0.415066 0.1598 Uiso
C C 0.103511 1.05955 0.428939 0.1597 Uiso
O O 0.10318 1.05677 0.461081 0.1726 Uiso
CB C 0.0873924 1.08571 0.410962 0.1573 Uiso
OG O 0.0781236 1.07722 0.384221 0.1924 Uiso
N N 0.103155 1.04708 0.405031 0.1621 Uiso
CA C 0.102034 1.02909 0.415648 0.1835 Uiso
C C 0.117427 1.02399 0.438312 0.1852 Uiso
O O 0.116383 1.01238 0.460578 0.2024 Uiso
CB C 0.100863 1.01771 0.383083 0.1824 Uiso
N N 0.131598 1.0329 0.433043 0.1614 Uiso
CA C 0.147271 1.02959 0.452291 0.1662 Uiso
C C 0.1475 1.03635 0.490205 0.1643 Uiso
O O 0.159825 1.03355 0.509373 0.1825 Uiso
CB C 0.162257 1.03715 0.431772 0.1605 Uiso
CG C 0.16451 1.02986 0.394626 0.1887 Uiso
CD1 C 0.178057 1.03994 0.37469 0.1923 Uiso
CD2 C 0.169043 1.011 0.397036 0.1812 Uiso
N N 0.133915 1.04484 0.501536 0.1625 Uiso
CA C 0.133368 1.05198 0.537041 0.1587 Uiso
C C 0.122113 1.04191 0.561796 0.1755 Uiso
O O 0.120979 1.04587 0.59354 0.1887 Uiso
CB C 0.126964 1.07046 0.535876 0.1673 Uiso
CG C 0.13692 1.08238 0.51128 0.1866 Uiso
CD1 C 0.128924 1.09987 0.512259 0.2109 Uiso
CD2 C 0.155381 1.08352 0.522902 0.1730 Uiso
N N 0.11385 1.0289 0.547181 0.1869 Uiso
CA C 0.102378 1.01771 0.566932 0.1891 Uiso
C C 0.110743 1.00853 0.59783 0.1887 Uiso
O O 0.125945 1.00527 0.597327 0.1891 Uiso
CB C 0.0948152 1.00439 0.541833 0.1892 Uiso
OG O 0.0851643 0.992272 0.560975 0.2401 Uiso
N N 0.100672 1.00427 0.624623 0.1968 Uiso
CA C 0.107114 0.994844 0.654885 0.2025 Uiso
C C 0.111558 0.976802 0.64313 0.2123 Uiso
O O 0.121412 0.967966 0.660313 0.2394 Uiso
CB C 0.0937584 0.994665 0.684433 0.2021 Uiso
CB C 0.0940767 0.994729 0.684936 0.2092 Uiso
OG O 0.0776143 0.989904 0.671698 0.1836 Uiso
OG O 0.0921415 1.0117 0.697856 0.2137 Uiso
N N 0.104288 0.971519 0.613397 0.2182 Uiso
CA C 0.107433 0.954776 0.597803 0.2238 Uiso
C C 0.122495 0.957857 0.573022 0.2110 Uiso
O O 0.121209 0.967839 0.547922 0.2125 Uiso
CB C 0.0918868 0.949136 0.57641 0.2494 Uiso
CG C 0.093351 0.930853 0.562908 0.3024 Uiso
OD1 O 0.107573 0.925199 0.554621 0.2984 Uiso
OD2 O 0.0802371 0.92194 0.56124 0.3499 Uiso
N N 0.136716 0.949301 0.579773 0.1959 Uiso
CA C 0.152007 0.952 0.558327 0.1748 Uiso
C C 0.152784 0.94254 0.523458 0.1692 Uiso
O O 0.165172 0.944247 0.503946 0.1596 Uiso
CB C 0.168457 0.948206 0.579164 0.1782 Uiso
CG1 C 0.16973 0.929197 0.588219 0.1748 Uiso
CG2 C 0.169208 0.959423 0.612471 0.1873 Uiso
CD1 C 0.186295 0.924308 0.605534 0.1983 Uiso
N N 0.139759 0.932597 0.515224 0.1671 Uiso
CA C 0.139657 0.922819 0.482527 0.1714 Uiso
C C 0.145068 0.932686 0.449299 0.1665 Uiso
O O 0.156133 0.926867 0.429522 0.1693 Uiso
CB C 0.122151 0.914505 0.476755 0.1869 Uiso
OG1 O 0.118178 0.90409 0.50654 0.2149 Uiso
CG2 C 0.122456 0.90339 0.444348 0.2106 Uiso
N N 0.137544 0.947544 0.443104 0.1484 Uiso
CA C 0.141745 0.957373 0.411412 0.1595 Uiso
C C 0.160283 0.962683 0.412127 0.1536 Uiso
O O 0.168979 0.961664 0.385042 0.1749 Uiso
CB C 0.130185 0.973008 0.408129 0.1595 Uiso
N N 0.166229 0.968641 0.442707 0.1382 Uiso
CA C 0.184003 0.97395 0.446307 0.1431 Uiso
C C 0.196226 0.959143 0.438841 0.1455 Uiso
O O 0.208932 0.96104 0.419911 0.1496 Uiso
CB C 0.187275 0.981411 0.483215 0.1397 Uiso
OG O 0.181787 0.998587 0.48483 0.1551 Uiso
N N 0.19219 0.944336 0.453377 0.1481 Uiso
CA C 0.202821 0.929427 0.448002 0.1591 Uiso
C C 0.202872 0.923735 0.40932 0.1667 Uiso
O O 0.216444 0.920476 0.394441 0.1648 Uiso
CB C 0.197282 0.914708 0.472413 0.1790 Uiso
CG1 C 0.206742 0.898131 0.462378 0.1904 Uiso
CG2 C 0.200924 0.919534 0.510618 0.1855 Uiso
N N 0.187912 0.922691 0.392826 0.1559 Uiso
CA C 0.18688 0.917331 0.355812 0.1823 Uiso
C C 0.196735 0.929134 0.331587 0.1771 Uiso
O O 0.205214 0.923366 0.306964 0.1830 Uiso
CB C 0.168419 0.91616 0.343077 0.2205 Uiso
CG C 0.158666 0.901836 0.360896 0.2843 Uiso
OD1 O 0.166254 0.890377 0.376755 0.2902 Uiso
ND2 N 0.141682 0.902473 0.358434 0.3141 Uiso
N N 0.195564 0.945673 0.338418 0.1577 Uiso
CA C 0.204667 0.957972 0.316972 0.1473 Uiso
C C 0.22379 0.956877 0.324385 0.1421 Uiso
O O 0.234129 0.957641 0.299975 0.1432 Uiso
CB C 0.197906 0.975822 0.32428 0.1546 Uiso
SG S 0.206271 0.992093 0.294918 0.1771 Uiso
N N 0.228463 0.954636 0.357983 0.1401 Uiso
CA C 0.246364 0.953197 0.368256 0.1382 Uiso
C C 0.25464 0.93797 0.349352 0.1473 Uiso
O O 0.269447 0.938657 0.338947 0.1532 Uiso
CB C 0.247943 0.951326 0.408129 0.1301 Uiso
N N 0.245066 0.924206 0.344798 0.1525 Uiso
CA C 0.251763 0.90931 0.326477 0.1627 Uiso
C C 0.256473 0.913868 0.28851 0.1691 Uiso
O O 0.26918 0.907833 0.274981 0.1950 Uiso
CB C 0.238661 0.894846 0.326742 0.1750 Uiso
CG C 0.236713 0.886532 0.362511 0.1779 Uiso
CD C 0.223294 0.872693 0.361875 0.2066 Uiso
CE C 0.221486 0.865015 0.398783 0.2325 Uiso
NZ N 0.206564 0.853493 0.40204 0.2398 Uiso
N N 0.246211 0.924436 0.271169 0.1747 Uiso
CA C 0.250095 0.929401 0.234685 0.2006 Uiso
C C 0.265819 0.940771 0.23397 0.1863 Uiso
O O 0.276832 0.939065 0.211227 0.1844 Uiso
CB C 0.235096 0.938785 0.217422 0.2380 Uiso
CG C 0.219207 0.927886 0.21226 0.3271 Uiso
CD C 0.206373 0.936506 0.187743 0.3739 Uiso
CE C 0.19014 0.925734 0.183507 0.4154 Uiso
NZ N 0.180081 0.92385 0.216972 0.4397 Uiso
N N 0.266761 0.952471 0.259228 0.1603 Uiso
CA C 0.281123 0.964261 0.261293 0.1578 Uiso
C C 0.297929 0.954776 0.266429 0.1465 Uiso
O O 0.30977 0.95722 0.246361 0.1474 Uiso
CB C 0.278512 0.977579 0.291846 0.1617 Uiso
CG1 C 0.262852 0.988643 0.28438 0.1487 Uiso
CG2 C 0.2943 0.988681 0.296771 0.1367 Uiso
CD1 C 0.258141 1.00008 0.314801 0.1435 Uiso
N N 0.298629 0.943406 0.29227 0.1558 Uiso
CA C 0.314213 0.934125 0.300028 0.1662 Uiso
C C 0.319662 0.921876 0.270374 0.2080 Uiso
O O 0.33433 0.916173 0.269368 0.2050 Uiso
CB C 0.312863 0.924843 0.335982 0.1601 Uiso
CG1 C 0.301252 0.909374 0.333175 0.1570 Uiso
CG2 C 0.330281 0.920081 0.349458 0.1759 Uiso
N N 0.307923 0.918006 0.246308 0.2211 Uiso
CA C 0.311565 0.906814 0.216363 0.2660 Uiso
C C 0.31709 0.917331 0.184274 0.2962 Uiso
O O 0.322642 0.910367 0.157507 0.3195 Uiso
CB C 0.295624 0.896782 0.2067 0.2363 Uiso
OG O 0.290773 0.885883 0.234632 0.2662 Uiso
N N 0.315715 0.934125 0.187928 0.3359 Uiso
CA C 0.31965 0.946615 0.160446 0.3658 Uiso
C C 0.338035 0.947213 0.147393 0.3724 Uiso
O O 0.341816 0.955807 0.121209 0.3886 Uiso
CB C 0.314468 0.964185 0.173922 0.3979 Uiso
CG C 0.313169 0.977172 0.144931 0.4637 Uiso
OD1 O 0.304257 0.973759 0.118323 0.4884 Uiso
OD2 O 0.320757 0.991049 0.14922 0.5027 Uiso
N N 0.349608 0.938594 0.165741 0.3673 Uiso
CA C 0.367293 0.938772 0.154065 0.3511 Uiso
C C 0.380292 0.945736 0.180118 0.3402 Uiso
O O 0.394883 0.939689 0.180435 0.3432 Uiso
N N 0.375428 0.958303 0.201696 0.3047 Uiso
CA C 0.387269 0.965484 0.227642 0.2714 Uiso
C C 0.384659 0.958366 0.264735 0.2159 Uiso
O O 0.393024 0.963739 0.28994 0.1964 Uiso
CB C 0.385983 0.984785 0.228145 0.3312 Uiso
CG C 0.388963 0.992361 0.192085 0.4025 Uiso
OD1 O 0.402828 0.99068 0.177152 0.4319 Uiso
ND2 N 0.37576 1.00017 0.176967 0.4288 Uiso
N N 0.373188 0.946118 0.267886 0.1817 Uiso
CA C 0.36989 0.938403 0.30196 0.1695 Uiso
C C 0.363562 0.951351 0.328754 0.1593 Uiso
O O 0.354701 0.963446 0.31962 0.1698 Uiso
N N 0.368833 0.949314 0.361875 0.1453 Uiso
CA C 0.363091 0.960887 0.389543 0.1324 Uiso
C C 0.371685 0.978126 0.389278 0.1363 Uiso
O O 0.36728 0.989292 0.410194 0.1215 Uiso
CB C 0.364263 0.952522 0.425841 0.1203 Uiso
CG C 0.350168 0.939485 0.43156 0.1264 Uiso
SD S 0.347838 0.933259 0.476914 0.1517 Uiso
CE C 0.336354 0.951491 0.493991 0.1587 Uiso
N N 0.383972 0.980342 0.36545 0.1417 Uiso
CA C 0.392795 0.996651 0.362326 0.1477 Uiso
C C 0.380241 1.01035 0.35065 0.1435 Uiso
O O 0.383984 1.0255 0.35388 0.1529 Uiso
CB C 0.407895 0.995506 0.336909 0.1458 Uiso
CG C 0.422066 0.984327 0.351312 0.1560 Uiso
OD1 O 0.429934 0.988236 0.378688 0.1634 Uiso
ND2 N 0.425134 0.970118 0.333573 0.1693 Uiso
N N 0.365345 1.00486 0.337809 0.1455 Uiso
CA C 0.351836 1.01653 0.326927 0.1484 Uiso
C C 0.345865 1.02711 0.358831 0.1567 Uiso
O O 0.338849 1.04101 0.354568 0.1896 Uiso
CB C 0.337054 1.00663 0.311439 0.1583 Uiso
N N 0.34836 1.02035 0.390708 0.1340 Uiso
CA C 0.343662 1.02921 0.423273 0.1364 Uiso
C C 0.359577 1.03741 0.438285 0.1450 Uiso
O O 0.370845 1.02871 0.452185 0.1336 Uiso
CB C 0.335768 1.01704 0.450199 0.1350 Uiso
CG C 0.31802 1.01229 0.440324 0.1339 Uiso
CD1 C 0.303607 1.02158 0.44681 0.1358 Uiso
CD2 C 0.312622 0.997275 0.421976 0.1217 Uiso
NE1 N 0.289666 1.0132 0.433837 0.1346 Uiso
CE2 C 0.294771 0.998243 0.418534 0.1346 Uiso
CE3 C 0.321127 0.983079 0.408076 0.1283 Uiso
CZ2 C 0.285159 0.985562 0.401589 0.1192 Uiso
CZ3 C 0.311552 0.970462 0.391184 0.1279 Uiso
CH2 C 0.293753 0.971837 0.388246 0.1158 Uiso
N N 0.360239 1.05426 0.435929 0.1534 Uiso
CA C 0.374906 1.06386 0.44824 0.1584 Uiso
C C 0.37935 1.06063 0.487213 0.1517 Uiso
O O 0.39431 1.05816 0.49595 0.1600 Uiso
CB C 0.372233 1.08329 0.442389 0.1743 Uiso
CB C 0.372436 1.08313 0.441701 0.1758 Uiso
CG1 C 0.387358 1.09339 0.456845 0.1899 Uiso
CG1 C 0.358444 1.09014 0.465529 0.1706 Uiso
CG2 C 0.369725 1.08704 0.403099 0.1736 Uiso
CG2 C 0.389255 1.09256 0.446599 0.1910 Uiso
N N 0.366592 1.05973 0.510273 0.1550 Uiso
CA C 0.370132 1.05676 0.54779 0.1539 Uiso
C C 0.377364 1.03895 0.553615 0.1472 Uiso
O O 0.387638 1.03629 0.577311 0.1532 Uiso
CB C 0.354255 1.05948 0.570215 0.1617 Uiso
N N 0.371774 1.02667 0.532407 0.1406 Uiso
CA C 0.378471 1.0095 0.536008 0.1239 Uiso
C C 0.397264 1.00985 0.525841 0.1335 Uiso
O O 0.408124 1.00298 0.544719 0.1246 Uiso
CB C 0.36919 0.996817 0.512021 0.1083 Uiso
CG C 0.377173 0.979552 0.514245 0.1089 Uiso
CD1 C 0.37483 0.967737 0.54043 0.1294 Uiso
CD2 C 0.389599 0.972461 0.490575 0.1194 Uiso
NE1 N 0.385079 0.953821 0.534631 0.1210 Uiso
CE2 C 0.394195 0.956317 0.504184 0.1115 Uiso
CE3 C 0.397264 0.978114 0.459042 0.1160 Uiso
CZ2 C 0.406125 0.945825 0.487398 0.1244 Uiso
CZ3 C 0.409066 0.967648 0.442362 0.1170 Uiso
CH2 C 0.41337 0.951695 0.45666 0.1163 Uiso
N N 0.401045 1.01772 0.495765 0.1313 Uiso
CA C 0.418488 1.0187 0.483241 0.1643 Uiso
C C 0.430227 1.02778 0.509797 0.1644 Uiso
O O 0.444245 1.02175 0.517925 0.1672 Uiso
CB C 0.418959 1.02805 0.447869 0.1918 Uiso
CG C 0.435256 1.02535 0.427827 0.2891 Uiso
CD C 0.436809 1.03786 0.397433 0.3642 Uiso
NE N 0.42022 1.04138 0.381653 0.4359 Uiso
CZ C 0.414032 1.05694 0.376596 0.4622 Uiso
NH1 N 0.423237 1.07045 0.386048 0.4671 Uiso
NH2 N 0.398588 1.05897 0.362882 0.4768 Uiso
N N 0.424141 1.04184 0.524518 0.1515 Uiso
CA C 0.43448 1.05168 0.548902 0.1555 Uiso
C C 0.434543 1.04628 0.587133 0.1505 Uiso
O O 0.446919 1.04964 0.605799 0.1629 Uiso
CB C 0.429527 1.07043 0.546731 0.1510 Uiso
CG C 0.434238 1.07821 0.511597 0.1627 Uiso
OD1 O 0.446919 1.07321 0.495447 0.1863 Uiso
ND2 N 0.424167 1.09033 0.499365 0.1570 Uiso
N N 0.421442 1.03714 0.598571 0.1422 Uiso
CA C 0.420003 1.03253 0.635664 0.1522 Uiso
C C 0.417724 1.01384 0.644957 0.1602 Uiso
O O 0.419685 1.00917 0.675722 0.1820 Uiso
CB C 0.405616 1.04303 0.651682 0.1487 Uiso
CG C 0.407449 1.06185 0.642548 0.1620 Uiso
CD C 0.392986 1.07225 0.656315 0.1624 Uiso
NE N 0.39347 1.07407 0.694732 0.1758 Uiso
CZ C 0.382558 1.0837 0.712709 0.1749 Uiso
NH1 N 0.370565 1.09219 0.69542 0.1762 Uiso
NH2 N 0.38359 1.08474 0.74771 0.1843 Uiso
N N 0.413752 1.00323 0.618878 0.1397 Uiso
CA C 0.411116 0.985142 0.625497 0.1360 Uiso
C C 0.424116 0.973912 0.60752 0.1411 Uiso
O O 0.430061 0.961486 0.623008 0.1624 Uiso
CB C 0.393546 0.979794 0.612815 0.1237 Uiso
SG S 0.376727 0.991941 0.633493 0.1397 Uiso
N N 0.42791 0.977986 0.574345 0.1408 Uiso
CA C 0.43998 0.968399 0.552979 0.1515 Uiso
C C 0.45662 0.965598 0.572598 0.1720 Uiso
O O 0.464463 0.977783 0.585492 0.1712 Uiso
CB C 0.443519 0.977935 0.518481 0.1468 Uiso
CG C 0.453348 0.967699 0.491158 0.1379 Uiso
CD C 0.455513 0.977834 0.45703 0.1425 Uiso
CE C 0.462694 0.966808 0.427139 0.1535 Uiso
NZ N 0.463267 0.97614 0.392588 0.1649 Uiso
N N 0.461624 0.949428 0.575087 0.2106 Uiso
CA C 0.477488 0.944743 0.59227 0.2305 Uiso
C C 0.477692 0.945367 0.632328 0.2501 Uiso
O O 0.49129 0.944043 0.648399 0.2807 Uiso
N N 0.463025 0.948321 0.648716 0.2290 Uiso
CA C 0.462032 0.948843 0.687186 0.2109 Uiso
C C 0.454749 0.931897 0.699603 0.2156 Uiso
O O 0.449936 0.921138 0.678105 0.1953 Uiso
CB C 0.450318 0.963434 0.700265 0.2140 Uiso
OG1 O 0.432952 0.959627 0.691634 0.1949 Uiso
CG2 C 0.455678 0.980495 0.683426 0.2004 Uiso
N N 0.453921 0.929376 0.734234 0.2247 Uiso
CA C 0.446982 0.913639 0.748213 0.2467 Uiso
C C 0.427719 0.915345 0.747551 0.2371 Uiso
O O 0.419901 0.919572 0.774424 0.2465 Uiso
CB C 0.453196 0.910812 0.78618 0.3074 Uiso
CG C 0.445773 0.89477 0.802913 0.3655 Uiso
OD1 O 0.442488 0.88214 0.783691 0.4047 Uiso
OD2 O 0.443163 0.894872 0.835558 0.4212 Uiso
N N 0.420029 0.91192 0.717025 0.2135 Uiso
CA C 0.401631 0.913741 0.713291 0.2119 Uiso
C C 0.391012 0.900703 0.73344 0.2223 Uiso
O O 0.375925 0.903606 0.740191 0.2102 Uiso
CB C 0.395991 0.914785 0.673922 0.2053 Uiso
CG1 C 0.40256 0.931222 0.657189 0.2012 Uiso
CG2 C 0.402306 0.899608 0.653614 0.2161 Uiso
N N 0.398792 0.886494 0.743686 0.2329 Uiso
CA C 0.389803 0.873368 0.763596 0.2439 Uiso
C C 0.383526 0.880739 0.7991 0.2342 Uiso
O O 0.370616 0.875061 0.813715 0.2346 Uiso
CB C 0.401682 0.858013 0.769394 0.2984 Uiso
CG C 0.393088 0.841754 0.7834 0.3892 Uiso
CD C 0.390414 0.841716 0.823696 0.4542 Uiso
OE1 O 0.401593 0.847089 0.843871 0.4904 Uiso
NE2 N 0.375645 0.835312 0.835505 0.4676 Uiso
N N 0.3924 0.89365 0.812523 0.2253 Uiso
CA C 0.387651 0.901862 0.845777 0.2102 Uiso
C C 0.369635 0.909144 0.844692 0.2190 Uiso
O O 0.361309 0.910685 0.872094 0.2133 Uiso
CB C 0.400167 0.915803 0.85462 0.2213 Uiso
N N 0.363524 0.913652 0.813185 0.2050 Uiso
CA C 0.346361 0.920731 0.809426 0.2124 Uiso
C C 0.332318 0.907871 0.816495 0.2172 Uiso
O O 0.317778 0.912557 0.823537 0.2196 Uiso
CB C 0.344057 0.928905 0.772915 0.1972 Uiso
CG C 0.354051 0.944743 0.770585 0.2026 Uiso
CD1 C 0.369572 0.94678 0.754832 0.1973 Uiso
CD2 C 0.350232 0.960531 0.787662 0.1997 Uiso
NE1 N 0.37576 0.962823 0.761372 0.1918 Uiso
CE2 C 0.364148 0.971557 0.781494 0.2005 Uiso
CE3 C 0.33643 0.966438 0.807837 0.2063 Uiso
CZ2 C 0.364708 0.988147 0.794864 0.1969 Uiso
CZ3 C 0.336991 0.982952 0.821261 0.2029 Uiso
CH2 C 0.351098 0.993583 0.814615 0.2109 Uiso
N N 0.336545 0.891562 0.814747 0.2180 Uiso
CA C 0.323762 0.878651 0.821552 0.2313 Uiso
C C 0.327696 0.86858 0.85507 0.2434 Uiso
O O 0.318096 0.857083 0.864893 0.2406 Uiso
CB C 0.321572 0.866696 0.789648 0.2376 Uiso
CG1 C 0.33848 0.858255 0.780355 0.2343 Uiso
CG2 C 0.314582 0.876716 0.757956 0.2389 Uiso
CD1 C 0.336761 0.844173 0.753694 0.3045 Uiso
N N 0.34123 0.873482 0.873604 0.2549 Uiso
CA C 0.345788 0.864455 0.905851 0.2955 Uiso
C C 0.331758 0.865792 0.933439 0.2905 Uiso
O O 0.323686 0.879046 0.937252 0.2954 Uiso
CB C 0.363066 0.870414 0.920625 0.3493 Uiso
CG C 0.364466 0.889015 0.932724 0.4296 Uiso
CD C 0.357311 0.891982 0.969685 0.4942 Uiso
NE N 0.360748 0.908992 0.983876 0.5426 Uiso
CZ C 0.355388 0.923583 0.969632 0.5560 Uiso
NH1 N 0.352918 0.924919 0.935001 0.5660 Uiso
NH2 N 0.352816 0.937015 0.989966 0.5820 Uiso
N N 0.328142 0.85143 0.95041 0.2965 Uiso
CA C 0.315206 0.850819 0.977707 0.2909 Uiso
C C 0.297267 0.848005 0.964602 0.2890 Uiso
O O 0.285668 0.844962 0.985835 0.3062 Uiso
N N 0.294657 0.848884 0.930024 0.2765 Uiso
CA C 0.277558 0.846656 0.915833 0.2713 Uiso
C C 0.272643 0.828156 0.910749 0.2847 Uiso
O O 0.283325 0.817512 0.902674 0.2960 Uiso
CB C 0.275635 0.856001 0.880593 0.2443 Uiso
SG S 0.282994 0.877913 0.880514 0.2386 Uiso
N N 0.256333 0.824426 0.915277 0.3104 Uiso
CA C 0.249827 0.807288 0.910061 0.3480 Uiso
C C 0.242774 0.808001 0.872412 0.3656 Uiso
O O 0.229418 0.815742 0.866482 0.3831 Uiso
CB C 0.235809 0.803813 0.937305 0.3687 Uiso
CG C 0.228183 0.78595 0.935716 0.4172 Uiso
CD C 0.217845 0.781964 0.968811 0.4414 Uiso
NE N 0.207481 0.796454 0.979958 0.4984 Uiso
CZ C 0.206793 0.802361 1.013 0.5217 Uiso
NH1 N 0.215833 0.794964 1.03855 0.5342 Uiso
NH2 N 0.197231 0.815883 1.02041 0.5447 Uiso
N N 0.252043 0.800757 0.846942 0.3859 Uiso
CA C 0.246886 0.801406 0.809479 0.4166 Uiso
C C 0.238292 0.785759 0.792878 0.4353 Uiso
O O 0.222555 0.786166 0.788774 0.4463 Uiso
CB C 0.261859 0.806856 0.785942 0.4143 Uiso
CG C 0.267194 0.825521 0.782288 0.4250 Uiso
CD1 C 0.251788 0.836903 0.783453 0.4207 Uiso
CD2 C 0.279633 0.830282 0.810776 0.4439 Uiso
OXT O 0.247255 0.773625 0.781944 0.4456 Uiso
N N 0.871738 -0.042474 1.22648 0.1693 Uiso
CA C 0.867282 -0.030926 1.25645 0.1810 Uiso
C C 0.848082 -0.0307478 1.26293 0.1810 Uiso
O O 0.838062 -0.0304295 1.23778 0.1730 Uiso
CB C 0.873393 -0.012732 1.24832 0.1916 Uiso
CG C 0.867027 0.000483816 1.27382 0.2130 Uiso
CD C 0.873813 0.018054 1.26524 0.2253 Uiso
CD C 0.87338 0.0181686 1.26354 0.2173 Uiso
CE C 0.865525 0.0312825 1.28907 0.2386 Uiso
CE C 0.864124 0.0320337 1.28417 0.2295 Uiso
NZ N 0.873737 0.0483052 1.28623 0.2372 Uiso
NZ N 0.866276 0.0309897 1.32343 0.2186 Uiso
N N 0.843027 -0.0314098 1.29645 0.1769 Uiso
CA C 0.82505 -0.0307732 1.30577 0.1863 Uiso
C C 0.821879 -0.0127065 1.3189 0.1943 Uiso
O O 0.829238 -0.00730817 1.34527 0.2191 Uiso
CB C 0.820148 -0.0440782 1.33437 0.1782 Uiso
CG1 C 0.801381 -0.0418755 1.34512 0.2006 Uiso
CG2 C 0.822885 -0.062043 1.31999 0.1883 Uiso
N N 0.812139 -0.0029029 1.29884 0.1785 Uiso
CA C 0.808574 0.0146545 1.30866 0.1921 Uiso
C C 0.795269 0.0163734 1.33736 0.2007 Uiso
O O 0.784536 0.00515646 1.34234 0.2040 Uiso
CB C 0.802005 0.024611 1.27662 0.1835 Uiso
CG C 0.815742 0.0319191 1.25361 0.1862 Uiso
CD1 C 0.823687 0.0218863 1.22788 0.1754 Uiso
CD2 C 0.820479 0.0490055 1.25698 0.1838 Uiso
CE1 C 0.836126 0.0287871 1.20583 0.1918 Uiso
CE2 C 0.832943 0.0560845 1.23505 0.1959 Uiso
CZ C 0.840786 0.0459498 1.20935 0.2058 Uiso
N N 0.796504 0.0303022 1.35687 0.2119 Uiso
CA C 0.782996 0.034491 1.38163 0.1969 Uiso
C C 0.769704 0.043849 1.36055 0.1854 Uiso
O O 0.77374 0.0506097 1.33206 0.1743 Uiso
N N 0.754043 0.0444856 1.37265 0.1852 Uiso
CA C 0.740496 0.0527869 1.35285 0.1853 Uiso
C C 0.744647 0.0712228 1.34316 0.1877 Uiso
O O 0.744583 0.0758955 1.31194 0.1782 Uiso
CB C 0.723932 0.0518702 1.37382 0.1883 Uiso
CG C 0.708832 0.0596876 1.35531 0.1924 Uiso
CD C 0.692713 0.0572558 1.37675 0.2280 Uiso
NE N 0.693515 0.0648441 1.41215 0.2675 Uiso
CZ C 0.690982 0.0813193 1.41946 0.2847 Uiso
NH1 N 0.68748 0.0924852 1.39394 0.2699 Uiso
NH2 N 0.691593 0.0866413 1.45282 0.2912 Uiso
N N 0.748492 0.081663 1.36982 0.1939 Uiso
CA C 0.752655 0.0996406 1.36328 0.1977 Uiso
C C 0.76964 0.102098 1.3444 0.1828 Uiso
O O 0.771868 0.114104 1.32409 0.1891 Uiso
CB C 0.752248 0.109826 1.39791 0.2029 Uiso
SG S 0.731215 0.110412 1.41795 0.2204 Uiso
N N 0.781532 0.0903717 1.35017 0.1833 Uiso
CA C 0.798147 0.0914158 1.33296 0.1760 Uiso
C C 0.795791 0.0892131 1.29317 0.1662 Uiso
O O 0.803647 0.0980237 1.27199 0.1558 Uiso
CB C 0.809911 0.077487 1.34684 0.1938 Uiso
CG C 0.827889 0.0783527 1.33206 0.2031 Uiso
CD C 0.838456 0.0627942 1.34122 0.2181 Uiso
OE1 O 0.830995 0.0495402 1.35083 0.2403 Uiso
OE2 O 0.85432 0.0635454 1.33797 0.2296 Uiso
N N 0.784829 0.0772705 1.28324 0.1602 Uiso
CA C 0.781201 0.0742403 1.24594 0.1645 Uiso
C C 0.771435 0.0894041 1.23016 0.1674 Uiso
O O 0.775191 0.0951462 1.20072 0.1759 Uiso
CB C 0.770849 0.0578542 1.24149 0.1612 Uiso
CG C 0.76675 0.05392 1.20286 0.1603 Uiso
CD1 C 0.783301 0.051259 1.18155 0.1643 Uiso
CD2 C 0.755622 0.0382724 1.20127 0.1598 Uiso
N N 0.758767 0.0956682 1.24962 0.1669 Uiso
CA C 0.748709 0.110336 1.23802 0.1716 Uiso
C C 0.760613 0.125206 1.22939 0.1643 Uiso
O O 0.759416 0.132909 1.20114 0.1726 Uiso
CB C 0.735926 0.11553 1.26714 0.1631 Uiso
N N 0.772454 0.128861 1.25335 0.1706 Uiso
CA C 0.784524 0.142726 1.24787 0.1785 Uiso
C C 0.795677 0.139581 1.21536 0.1791 Uiso
O O 0.798503 0.150989 1.19394 0.1858 Uiso
CB C 0.79555 0.145094 1.28075 0.1886 Uiso
N N 0.80189 0.123984 1.21141 0.1800 Uiso
CA C 0.812636 0.119643 1.18131 0.1717 Uiso
C C 0.802909 0.121489 1.14639 0.1815 Uiso
O O 0.809809 0.127918 1.12023 0.1779 Uiso
CB C 0.819486 0.101474 1.18525 0.1868 Uiso
N N 0.786917 0.115836 1.14602 0.1696 Uiso
CA C 0.776566 0.116842 1.11422 0.1681 Uiso
C C 0.77281 0.135099 1.10469 0.1781 Uiso
O O 0.773498 0.139836 1.07355 0.1923 Uiso
CB C 0.760129 0.107063 1.1193 0.1493 Uiso
CG C 0.76279 0.0880545 1.11811 0.1667 Uiso
SD S 0.743246 0.0766721 1.12378 0.1804 Uiso
CE C 0.747283 0.0579433 1.09714 0.1774 Uiso
N N 0.769423 0.145412 1.13169 0.1916 Uiso
CA C 0.765566 0.163428 1.12674 0.2232 Uiso
C C 0.78087 0.172391 1.11091 0.2221 Uiso
O O 0.779227 0.181737 1.08483 0.2220 Uiso
CB C 0.760753 0.171526 1.16219 0.2449 Uiso
CG C 0.755724 0.190114 1.16018 0.3055 Uiso
CD C 0.744507 0.194507 1.19163 0.3447 Uiso
CE C 0.739274 0.213083 1.19193 0.3925 Uiso
NZ N 0.753381 0.223816 1.205 0.4345 Uiso
N N 0.795868 0.168572 1.12539 0.2348 Uiso
CA C 0.811808 0.176084 1.11319 0.2449 Uiso
C C 0.81503 0.17122 1.07482 0.2385 Uiso
O O 0.822223 0.181176 1.05457 0.2315 Uiso
CB C 0.826641 0.170087 1.13622 0.2722 Uiso
CG C 0.839602 0.183926 1.14337 0.3560 Uiso
CD C 0.85758 0.17863 1.13341 0.4045 Uiso
NE N 0.861896 0.161365 1.14467 0.4486 Uiso
CZ C 0.875468 0.152924 1.13288 0.4653 Uiso
NH1 N 0.886049 0.160334 1.11014 0.4852 Uiso
NH2 N 0.878282 0.136984 1.14308 0.4870 Uiso
N N 0.809427 0.155916 1.06479 0.2263 Uiso
CA C 0.811515 0.149817 1.02865 0.2263 Uiso
C C 0.797472 0.155241 1.00297 0.2232 Uiso
O O 0.796632 0.148888 0.973048 0.2273 Uiso
CB C 0.814215 0.130618 1.02807 0.2297 Uiso
CG C 0.832052 0.125461 1.03675 0.2690 Uiso
ND1 N 0.837132 0.12117 1.07051 0.2741 Uiso
CD2 C 0.846197 0.124315 1.01623 0.2757 Uiso
CE1 C 0.853646 0.117593 1.07045 0.2829 Uiso
NE2 N 0.859388 0.119426 1.0377 0.2912 Uiso
N N 0.786497 0.166853 1.01504 0.2305 Uiso
CA C 0.773014 0.173881 0.992905 0.2335 Uiso
C C 0.756933 0.163721 0.986127 0.2530 Uiso
O O 0.747728 0.167158 0.960499 0.2501 Uiso
N N 0.753394 0.151269 1.00866 0.2480 Uiso
CA C 0.738115 0.141032 1.00418 0.2401 Uiso
C C 0.721831 0.148875 1.01898 0.2441 Uiso
O O 0.707915 0.144075 1.00784 0.2543 Uiso
CB C 0.7407 0.123233 1.0197 0.2276 Uiso
CG C 0.751153 0.110858 0.997433 0.2211 Uiso
CD1 C 0.750504 0.093402 1.0153 0.2394 Uiso
CD2 C 0.743909 0.109533 0.960154 0.2191 Uiso
N N 0.72313 0.160932 1.04355 0.2381 Uiso
CA C 0.707622 0.16847 1.05819 0.2515 Uiso
C C 0.698124 0.17779 1.02886 0.2462 Uiso
O O 0.704745 0.189694 1.01258 0.2498 Uiso
CB C 0.711416 0.180514 1.08917 0.2764 Uiso
CG C 0.69517 0.18702 1.10797 0.3122 Uiso
OD1 O 0.681153 0.179368 1.10437 0.3095 Uiso
OD2 O 0.696533 0.200083 1.12695 0.3510 Uiso
N N 0.682897 0.171538 1.02116 0.2354 Uiso
CA C 0.671985 0.178655 0.993885 0.2371 Uiso
C C 0.678339 0.175472 0.956183 0.2204 Uiso
O O 0.672138 0.18329 0.931004 0.2197 Uiso
CB C 0.668892 0.197639 1.00061 0.2951 Uiso
CG C 0.662118 0.201038 1.03768 0.3612 Uiso
OD1 O 0.648088 0.195487 1.04708 0.4034 Uiso
ND2 N 0.672253 0.209658 1.05936 0.4022 Uiso
N N 0.69032 0.163644 0.951788 0.1991 Uiso
CA C 0.696507 0.159596 0.916495 0.1823 Uiso
C C 0.681636 0.151396 0.896453 0.1953 Uiso
O O 0.674137 0.139008 0.90887 0.1806 Uiso
CB C 0.711658 0.147437 0.917819 0.1697 Uiso
CG C 0.719641 0.145349 0.881891 0.1859 Uiso
CD1 C 0.731291 0.157266 0.869183 0.1901 Uiso
CD2 C 0.714956 0.131929 0.859757 0.1835 Uiso
CE1 C 0.737963 0.155929 0.83532 0.2180 Uiso
CE2 C 0.721462 0.130465 0.825895 0.1977 Uiso
CZ C 0.732959 0.142471 0.813822 0.2261 Uiso
OH O 0.73921 0.141172 0.779985 0.2661 Uiso
N N 0.677231 0.158781 0.865979 0.2018 Uiso
CA C 0.662857 0.15309 0.843819 0.2216 Uiso
C C 0.646292 0.153904 0.864602 0.1964 Uiso
O O 0.634553 0.144063 0.857692 0.2080 Uiso
CB C 0.66539 0.135048 0.829178 0.2504 Uiso
CG C 0.67965 0.133393 0.802887 0.3347 Uiso
CD C 0.676072 0.143184 0.769342 0.4148 Uiso
NE N 0.691937 0.147246 0.7511 0.4937 Uiso
CZ C 0.693643 0.14829 0.716178 0.5319 Uiso
NH1 N 0.680554 0.144699 0.694918 0.5430 Uiso
NH2 N 0.708768 0.152147 0.702463 0.5658 Uiso
N N 0.645681 0.165325 0.890522 0.1766 Uiso
CA C 0.630581 0.167349 0.912259 0.1796 Uiso
C C 0.628557 0.155076 0.943263 0.1734 Uiso
O O 0.615303 0.155165 0.961028 0.1793 Uiso
N N 0.641365 0.144495 0.950279 0.1652 Uiso
CA C 0.640155 0.1324 0.97972 0.1484 Uiso
C C 0.649259 0.139173 1.01199 0.1474 Uiso
O O 0.664766 0.140689 1.01218 0.1455 Uiso
CB C 0.647387 0.115085 0.969368 0.1386 Uiso
CG C 0.636629 0.106249 0.941965 0.1211 Uiso
CD1 C 0.622955 0.0960884 0.952079 0.1223 Uiso
CD2 C 0.640117 0.108018 0.905852 0.1229 Uiso
CE1 C 0.613024 0.0877871 0.926927 0.1211 Uiso
CE2 C 0.630186 0.099768 0.880488 0.1268 Uiso
CZ C 0.616639 0.0896205 0.891396 0.1189 Uiso
OH O 0.607001 0.0808227 0.867118 0.1349 Uiso
N N 0.639481 0.142828 1.03966 0.1568 Uiso
CA C 0.646789 0.149639 1.07207 0.1636 Uiso
C C 0.658719 0.136691 1.08862 0.1682 Uiso
O O 0.657305 0.121336 1.08189 0.1557 Uiso
CB C 0.632847 0.154668 1.09796 0.1679 Uiso
OG O 0.622242 0.140638 1.10654 0.2001 Uiso
N N 0.670178 0.143031 1.11072 0.1716 Uiso
CA C 0.682833 0.132591 1.1283 0.1644 Uiso
C C 0.675767 0.116956 1.14689 0.1539 Uiso
O O 0.683572 0.103333 1.14578 0.1463 Uiso
CB C 0.692675 0.143617 1.15446 0.1804 Uiso
CG C 0.710283 0.137913 1.16635 0.1801 Uiso
CD1 C 0.721551 0.135036 1.13437 0.1971 Uiso
CD2 C 0.717859 0.151562 1.19026 0.1859 Uiso
N N 0.661138 0.118739 1.16413 0.1460 Uiso
CA C 0.653613 0.104313 1.18258 0.1398 Uiso
C C 0.650443 0.0890731 1.15864 0.1308 Uiso
O O 0.651487 0.0745841 1.17021 0.1491 Uiso
N N 0.646649 0.0923452 1.12507 0.1168 Uiso
CA C 0.643504 0.0785946 1.09979 0.1234 Uiso
C C 0.659559 0.0681162 1.09407 0.1265 Uiso
O O 0.65905 0.0525195 1.09336 0.1307 Uiso
CB C 0.637647 0.0856991 1.06418 0.1384 Uiso
CG C 0.619237 0.0908301 1.06452 0.1406 Uiso
OD1 O 0.608045 0.0800843 1.06309 0.1416 Uiso
ND2 N 0.615952 0.107343 1.06741 0.1581 Uiso
N N 0.673857 0.0768885 1.09028 0.1178 Uiso
CA C 0.690141 0.0686255 1.08425 0.1222 Uiso
C C 0.696087 0.0586181 1.11618 0.1225 Uiso
O O 0.702912 0.0446257 1.11247 0.1310 Uiso
CB C 0.70337 0.0818922 1.07366 0.1203 Uiso
CG C 0.698837 0.0902444 1.03979 0.1170 Uiso
CD1 C 0.692013 0.106058 1.03535 0.1325 Uiso
CD2 C 0.700773 0.0831782 1.00503 0.1335 Uiso
NE1 N 0.689632 0.109342 0.999921 0.1298 Uiso
CE2 C 0.69489 0.0955282 0.9807 0.1330 Uiso
CE3 C 0.706948 0.0675433 0.992031 0.1458 Uiso
CZ2 C 0.695069 0.092829 0.944057 0.1555 Uiso
CZ3 C 0.707113 0.0648823 0.955627 0.1663 Uiso
CH2 C 0.701167 0.0774615 0.932063 0.1686 Uiso
N N 0.693464 0.0656971 1.14758 0.1194 Uiso
CA C 0.698684 0.0570648 1.17993 0.1183 Uiso
C C 0.687595 0.0414172 1.18562 0.1137 Uiso
O O 0.693872 0.027743 1.19436 0.1269 Uiso
CB C 0.697882 0.0691475 1.21215 0.1402 Uiso
CG1 C 0.701982 0.0592675 1.24647 0.1522 Uiso
CG2 C 0.710398 0.0840185 1.20675 0.1294 Uiso
N N 0.671171 0.043327 1.1794 0.1046 Uiso
CA C 0.659495 0.0291435 1.18319 0.1153 Uiso
C C 0.664232 0.0149856 1.15684 0.1165 Uiso
O O 0.664359 -7.6392e-05 1.16614 0.1212 Uiso
CB C 0.641314 0.0352422 1.17641 0.1232 Uiso
SG S 0.625323 0.0188561 1.18218 0.1411 Uiso
N N 0.668293 0.0198619 1.12415 0.1141 Uiso
CA C 0.673055 0.00741002 1.09727 0.1324 Uiso
C C 0.689034 -0.0022281 1.10898 0.1311 Uiso
O O 0.68953 -0.0179139 1.10739 0.1432 Uiso
CB C 0.676047 0.0160678 1.06182 0.1340 Uiso
N N 0.701727 0.00706626 1.12208 0.1211 Uiso
CA C 0.717477 -0.000865776 1.134 0.1180 Uiso
C C 0.714128 -0.0128721 1.16497 0.1258 Uiso
O O 0.7215 -0.0267117 1.16696 0.1334 Uiso
CB C 0.730464 0.0126556 1.14437 0.1098 Uiso
N N 0.703153 -0.00762647 1.18928 0.1213 Uiso
CA C 0.699079 -0.0182195 1.2198 0.1370 Uiso
C C 0.692229 -0.0354714 1.20855 0.1444 Uiso
O O 0.698353 -0.0488272 1.2202 0.1546 Uiso
CB C 0.685711 -0.009549 1.2431 0.1579 Uiso
CG C 0.67839 -0.0210333 1.27188 0.1791 Uiso
CD C 0.691809 -0.0261133 1.2987 0.2202 Uiso
CE C 0.684297 -0.0376867 1.32677 0.2466 Uiso
NZ N 0.697399 -0.0422066 1.35335 0.2831 Uiso
N N 0.679485 -0.0351403 1.1856 0.1388 Uiso
CA C 0.671705 -0.0508898 1.17453 0.1412 Uiso
C C 0.68086 -0.0607571 1.14639 0.1408 Uiso
O O 0.678186 -0.0759846 1.14326 0.1659 Uiso
CB C 0.652887 -0.0481015 1.16632 0.1483 Uiso
CG C 0.642918 -0.0425758 1.19833 0.1394 Uiso
CD1 C 0.643873 -0.052023 1.22976 0.1392 Uiso
CD2 C 0.633382 -0.0276921 1.19788 0.1524 Uiso
CE1 C 0.635457 -0.0465737 1.2605 0.1650 Uiso
CE2 C 0.624928 -0.0221028 1.22838 0.1812 Uiso
CZ C 0.625959 -0.0316008 1.25978 0.1622 Uiso
N N 0.691873 -0.0524176 1.12642 0.1194 Uiso
CA C 0.701371 -0.0614446 1.09937 0.1277 Uiso
C C 0.716904 -0.0704462 1.11454 0.1392 Uiso
O O 0.720049 -0.0851771 1.10625 0.1393 Uiso
CB C 0.707406 -0.0491837 1.07048 0.1229 Uiso
CG C 0.693375 -0.0429705 1.04551 0.1389 Uiso
CD C 0.686564 -0.0569248 1.02116 0.1560 Uiso
OE1 O 0.694394 -0.070739 1.01951 0.1619 Uiso
OE2 O 0.673488 -0.0541365 1.00334 0.1692 Uiso
N N 0.726186 -0.0618266 1.13797 0.1302 Uiso
CA C 0.742126 -0.0687783 1.15195 0.1364 Uiso
C C 0.744672 -0.0681926 1.19179 0.1415 Uiso
O O 0.75813 -0.0733872 1.20477 0.1387 Uiso
CB C 0.756653 -0.0584526 1.13601 0.1336 Uiso
OG O 0.756335 -0.0416336 1.15009 0.1337 Uiso
N N 0.732259 -0.0612027 1.21083 0.1437 Uiso
CA C 0.733379 -0.0588982 1.24909 0.1654 Uiso
C C 0.748568 -0.0472485 1.25714 0.1496 Uiso
O O 0.757494 -0.049502 1.28329 0.1498 Uiso
CB C 0.734703 -0.0759209 1.26892 0.2099 Uiso
CG C 0.728248 -0.0746477 1.30659 0.2439 Uiso
OD1 O 0.718177 -0.063329 1.31538 0.2777 Uiso
ND2 N 0.733799 -0.086323 1.3291 0.2832 Uiso
N N 0.751446 -0.0351021 1.23328 0.1368 Uiso
CA C 0.764993 -0.0224083 1.23593 0.1399 Uiso
C C 0.78297 -0.0297674 1.23333 0.1422 Uiso
O O 0.795231 -0.0215171 1.24422 0.1474 Uiso
CB C 0.76363 -0.0124901 1.27082 0.1500 Uiso
CG C 0.747244 -0.00294109 1.27572 0.1397 Uiso
CD1 C 0.738994 0.00454532 1.24726 0.1360 Uiso
CD2 C 0.740573 -0.000865776 1.30958 0.1515 Uiso
CE1 C 0.724339 0.0142598 1.25248 0.1522 Uiso
CE2 C 0.726046 0.00873415 1.3152 0.1600 Uiso
CZ C 0.717897 0.0163097 1.28644 0.1460 Uiso
N N 0.784549 -0.0450713 1.2188 0.1334 Uiso
CA C 0.801088 -0.0535126 1.21562 0.1339 Uiso
C C 0.807747 -0.0516919 1.17797 0.1250 Uiso
O O 0.800311 -0.0586436 1.15311 0.1312 Uiso
CB C 0.799025 -0.0723814 1.22502 0.1308 Uiso
CG C 0.815755 -0.0820959 1.22526 0.1460 Uiso
OD1 O 0.829531 -0.0751188 1.21864 0.1475 Uiso
ND2 N 0.814584 -0.098482 1.23323 0.1855 Uiso
N N 0.822083 -0.0428941 1.17397 0.1274 Uiso
CA C 0.829608 -0.0401949 1.13919 0.1308 Uiso
C C 0.835579 -0.056581 1.12187 0.1203 Uiso
O O 0.837183 -0.0573067 1.08994 0.1235 Uiso
CB C 0.845064 -0.0281377 1.14067 0.1343 Uiso
OG1 O 0.858369 -0.0356623 1.16137 0.1451 Uiso
CG2 C 0.840073 -0.0111405 1.15674 0.1443 Uiso
N N 0.838673 -0.069695 1.14321 0.1225 Uiso
CA C 0.845217 -0.0858264 1.12947 0.1253 Uiso
C C 0.831861 -0.0989658 1.11933 0.1374 Uiso
O O 0.836075 -0.113124 1.10847 0.1519 Uiso
CB C 0.857745 -0.0935547 1.15616 0.1386 Uiso
CG C 0.873291 -0.0824015 1.16341 0.1349 Uiso
CD C 0.887475 -0.0922051 1.18123 0.1553 Uiso
OE1 O 0.896463 -0.102149 1.16423 0.1893 Uiso
NE2 N 0.889142 -0.0900025 1.21573 0.1553 Uiso
N N 0.815755 -0.0942168 1.12198 0.1337 Uiso
CA C 0.802068 -0.106007 1.11345 0.1450 Uiso
C C 0.801865 -0.11129 1.07453 0.1311 Uiso
O O 0.804386 -0.100799 1.05076 0.1225 Uiso
CB C 0.784906 -0.0981892 1.12362 0.1411 Uiso
N N 0.799624 -0.127778 1.06849 0.1230 Uiso
CA C 0.79816 -0.13459 1.03299 0.1349 Uiso
C C 0.7839 -0.147551 1.03386 0.1327 Uiso
O O 0.781048 -0.156082 1.0606 0.1519 Uiso
CB C 0.814457 -0.143719 1.0202 0.1494 Uiso
OG1 O 0.818811 -0.157011 1.04467 0.1681 Uiso
CG2 C 0.829238 -0.13142 1.01628 0.1473 Uiso
N N 0.774745 -0.148964 1.00466 0.1375 Uiso
CA C 0.761122 -0.161353 1.00204 0.1522 Uiso
C C 0.759556 -0.167107 0.963861 0.1475 Uiso
O O 0.758907 -0.156629 0.93998 0.1440 Uiso
CB C 0.744481 -0.153675 1.01533 0.1909 Uiso
CG C 0.744558 -0.150823 1.05547 0.2229 Uiso
OD1 O 0.746824 -0.136589 1.0682 0.2591 Uiso
ND2 N 0.742559 -0.164536 1.07535 0.2258 Uiso
N N 0.759543 -0.183863 0.958301 0.1598 Uiso
CA C 0.758232 -0.191235 0.92277 0.1776 Uiso
C C 0.739656 -0.192457 0.911809 0.1858 Uiso
O O 0.728732 -0.196773 0.933361 0.1988 Uiso
CB C 0.76582 -0.209225 0.922188 0.2094 Uiso
CG C 0.769436 -0.216164 0.88528 0.2314 Uiso
CD C 0.786688 -0.210142 0.87371 0.2910 Uiso
NE N 0.790215 -0.213185 0.836326 0.3370 Uiso
CZ C 0.800095 -0.225675 0.824041 0.3282 Uiso
NH1 N 0.807301 -0.236599 0.846228 0.3320 Uiso
NH2 N 0.804042 -0.226209 0.789887 0.3146 Uiso
N N 0.736244 -0.188866 0.878238 0.1940 Uiso
CA C 0.719081 -0.189758 0.863755 0.2195 Uiso
C C 0.71777 -0.206233 0.842919 0.2261 Uiso
O O 0.730693 -0.213325 0.832143 0.2366 Uiso
CB C 0.715771 -0.174428 0.839847 0.2324 Uiso
CG C 0.718012 -0.157495 0.859201 0.2392 Uiso
OD1 O 0.726848 -0.146011 0.846652 0.2750 Uiso
ND2 N 0.710156 -0.156005 0.889966 0.2646 Uiso
N N 0.702237 -0.212115 0.836114 0.2624 Uiso
CA C 0.699461 -0.228157 0.816787 0.2837 Uiso
C C 0.706209 -0.227903 0.779138 0.2736 Uiso
O O 0.711595 -0.24108 0.765529 0.2956 Uiso
CB C 0.680427 -0.233276 0.815887 0.3035 Uiso
OG1 O 0.670598 -0.219945 0.800028 0.3435 Uiso
CG2 C 0.674074 -0.236306 0.853059 0.3161 Uiso
N N 0.706005 -0.213019 0.762405 0.2570 Uiso
CA C 0.71241 -0.211555 0.726451 0.2524 Uiso
C C 0.731902 -0.211911 0.725259 0.2462 Uiso
O O 0.739401 -0.210358 0.696718 0.2660 Uiso
CB C 0.70556 -0.1955 0.708368 0.2517 Uiso
CG C 0.711467 -0.179343 0.725815 0.2769 Uiso
OD1 O 0.719909 -0.180069 0.753536 0.3011 Uiso
OD2 O 0.70761 -0.165554 0.712074 0.3062 Uiso
N N 0.740114 -0.213337 0.755971 0.2215 Uiso
CA C 0.758538 -0.21405 0.756739 0.1920 Uiso
C C 0.767348 -0.197244 0.764285 0.1890 Uiso
O O 0.782818 -0.196837 0.770242 0.1967 Uiso
N N 0.757837 -0.183277 0.763332 0.1648 Uiso
CA C 0.765247 -0.166764 0.770983 0.1505 Uiso
C C 0.767017 -0.165618 0.811306 0.1407 Uiso
O O 0.760664 -0.176593 0.830528 0.1508 Uiso
CB C 0.753687 -0.152695 0.757454 0.1541 Uiso
OG O 0.737912 -0.153102 0.775511 0.1748 Uiso
N N 0.775777 -0.152593 0.824121 0.1293 Uiso
CA C 0.778209 -0.150518 0.862193 0.1318 Uiso
C C 0.775433 -0.131814 0.870824 0.1286 Uiso
O O 0.778972 -0.12089 0.848505 0.1307 Uiso
CB C 0.796492 -0.155751 0.873154 0.1405 Uiso
OG1 O 0.799382 -0.173295 0.863861 0.1312 Uiso
CG2 C 0.79928 -0.153433 0.913027 0.1417 Uiso
N N 0.768163 -0.12844 0.90196 0.1170 Uiso
CA C 0.765005 -0.111176 0.914774 0.1273 Uiso
C C 0.779494 -0.107089 0.939874 0.1216 Uiso
O O 0.784269 -0.117784 0.961584 0.1179 Uiso
CB C 0.748123 -0.110221 0.934155 0.1384 Uiso
CG C 0.733252 -0.112996 0.910009 0.1738 Uiso
OD1 O 0.734932 -0.110463 0.877788 0.1830 Uiso
OD2 O 0.71954 -0.117605 0.923326 0.2647 Uiso
N N 0.785899 -0.0914412 0.937676 0.1237 Uiso
CA C 0.800604 -0.0860811 0.958222 0.1160 Uiso
C C 0.798771 -0.0698732 0.978529 0.1253 Uiso
O O 0.792303 -0.0571539 0.964999 0.1321 Uiso
CB C 0.815615 -0.0829235 0.933387 0.1165 Uiso
CG C 0.821892 -0.0984311 0.914457 0.1212 Uiso
CD1 C 0.814355 -0.103779 0.882977 0.1246 Uiso
CD2 C 0.835248 -0.108056 0.928304 0.1211 Uiso
CE1 C 0.819893 -0.118344 0.865794 0.1226 Uiso
CE2 C 0.840888 -0.122584 0.911333 0.1369 Uiso
CZ C 0.833096 -0.127562 0.880144 0.1310 Uiso
OH O 0.838546 -0.141898 0.863199 0.1424 Uiso
N N 0.805442 -0.0702042 1.01059 0.1273 Uiso
CA C 0.806041 -0.0549513 1.03164 0.1343 Uiso
C C 0.790699 -0.0492219 1.05187 0.1197 Uiso
O O 0.777305 -0.0573577 1.05271 0.1213 Uiso
N N 0.79285 -0.0340836 1.06635 0.1311 Uiso
CA C 0.780348 -0.0261006 1.08846 0.1436 Uiso
C C 0.76321 -0.0235669 1.06979 0.1348 Uiso
O O 0.749893 -0.0245346 1.08671 0.1417 Uiso
CB C 0.788025 -0.00957446 1.10474 0.1763 Uiso
CG1 C 0.778425 -0.00482543 1.13844 0.2052 Uiso
CG2 C 0.788878 0.00465991 1.0771 0.1724 Uiso
CD1 C 0.788318 0.00645512 1.16285 0.2457 Uiso
N N 0.763516 -0.0211733 1.03495 0.1272 Uiso
CA C 0.747881 -0.0189198 1.01512 0.1381 Uiso
C C 0.7441 -0.0339944 0.991555 0.1377 Uiso
O O 0.733392 -0.0330395 0.967912 0.1358 Uiso
CB C 0.748199 -0.00227903 0.99415 0.1672 Uiso
CG C 0.745984 0.0135468 1.01734 0.1816 Uiso
CD1 C 0.749065 0.0295255 0.995632 0.1910 Uiso
CD2 C 0.728223 0.0133941 1.03376 0.1958 Uiso
N N 0.753458 -0.0478469 0.997062 0.1260 Uiso
CA C 0.750542 -0.0634563 0.977152 0.1254 Uiso
C C 0.748658 -0.0608335 0.9372 0.1241 Uiso
O O 0.736015 -0.0660154 0.921393 0.1408 Uiso
CB C 0.734882 -0.0725342 0.992376 0.1211 Uiso
CG C 0.738141 -0.0800715 1.02907 0.1299 Uiso
CD C 0.750593 -0.0947133 1.02759 0.1340 Uiso
OE1 O 0.745653 -0.109113 1.02039 0.1299 Uiso
NE2 N 0.766979 -0.0910083 1.03328 0.1367 Uiso
N N 0.761555 -0.0531306 0.921208 0.1288 Uiso
CA C 0.761644 -0.0496803 0.883506 0.1397 Uiso
C C 0.765515 -0.0660791 0.863199 0.1512 Uiso
O O 0.777368 -0.075679 0.871857 0.1360 Uiso
CB C 0.773905 -0.0351276 0.875458 0.1549 Uiso
CG1 C 0.766151 -0.0186015 0.889728 0.1386 Uiso
CG2 C 0.777737 -0.0340836 0.835982 0.1688 Uiso
CD1 C 0.777941 -0.00357769 0.888219 0.1520 Uiso
N N 0.754947 -0.0693003 0.836697 0.1559 Uiso
CA C 0.755609 -0.0849352 0.815887 0.1686 Uiso
C C 0.768838 -0.0857882 0.786022 0.1624 Uiso
O O 0.770468 -0.0739602 0.764523 0.1755 Uiso
CB C 0.737543 -0.088602 0.802516 0.1681 Uiso
CG C 0.736129 -0.105612 0.784989 0.1579 Uiso
CG C 0.73534 -0.106771 0.789384 0.1857 Uiso
OD1 O 0.736791 -0.106681 0.752847 0.1703 Uiso
OD1 O 0.747614 -0.11553 0.78115 0.2087 Uiso
ND2 N 0.734398 -0.119044 0.805799 0.1479 Uiso
ND2 N 0.719501 -0.112182 0.785969 0.2042 Uiso
N N 0.77775 -0.100265 0.784115 0.1525 Uiso
CA C 0.790966 -0.10332 0.757639 0.1606 Uiso
C C 0.784167 -0.106592 0.720096 0.1678 Uiso
O O 0.79392 -0.106287 0.6946 0.1844 Uiso
CB C 0.802145 -0.11828 0.769236 0.1408 Uiso
OG O 0.792698 -0.133686 0.769368 0.1389 Uiso
N N 0.767654 -0.110043 0.716919 0.1969 Uiso
CA C 0.759671 -0.113175 0.682421 0.2401 Uiso
C C 0.760524 -0.0972597 0.659413 0.2418 Uiso
O O 0.762676 -0.0984948 0.627113 0.2457 Uiso
CB C 0.741018 -0.118662 0.687187 0.2752 Uiso
CG C 0.730413 -0.120139 0.653642 0.3651 Uiso
CD C 0.735276 -0.135494 0.631243 0.4343 Uiso
NE N 0.733494 -0.151638 0.650385 0.4868 Uiso
CZ C 0.742406 -0.165631 0.643025 0.5105 Uiso
NH1 N 0.753776 -0.165567 0.616787 0.5375 Uiso
NH2 N 0.740025 -0.179674 0.661929 0.5081 Uiso
N N 0.760129 -0.0823378 0.67612 0.2229 Uiso
CA C 0.760409 -0.0665374 0.656077 0.2266 Uiso
C C 0.773167 -0.0532325 0.666562 0.2006 Uiso
O O 0.779724 -0.0440527 0.64411 0.2104 Uiso
CB C 0.743208 -0.0574086 0.659308 0.2708 Uiso
CG C 0.728032 -0.0682563 0.654621 0.3432 Uiso
CD1 C 0.718164 -0.0751825 0.680833 0.3688 Uiso
CD2 C 0.720876 -0.0736419 0.621871 0.3807 Uiso
NE1 N 0.70528 -0.0846296 0.666059 0.3982 Uiso
CE2 C 0.706642 -0.0839293 0.629946 0.4047 Uiso
CE3 C 0.725142 -0.0708408 0.586313 0.4112 Uiso
CZ2 C 0.696533 -0.0914794 0.603602 0.4475 Uiso
CZ3 C 0.715147 -0.0783273 0.560076 0.4467 Uiso
CH2 C 0.700989 -0.0885383 0.568892 0.4567 Uiso
N N 0.777801 -0.0527487 0.700795 0.1881 Uiso
CA C 0.786561 -0.0372029 0.712604 0.1692 Uiso
C C 0.805481 -0.0393546 0.7206 0.1639 Uiso
O O 0.814775 -0.026508 0.720467 0.1678 Uiso
CB C 0.777878 -0.0306077 0.745434 0.1720 Uiso
CG C 0.758894 -0.0285579 0.738577 0.1662 Uiso
CD1 C 0.746404 -0.0387435 0.750385 0.1674 Uiso
CD2 C 0.751344 -0.0153548 0.717952 0.1654 Uiso
NE1 N 0.730769 -0.0322756 0.737226 0.1772 Uiso
CE2 C 0.733863 -0.0184232 0.717952 0.1763 Uiso
CE3 C 0.757774 -0.00122227 0.699286 0.1863 Uiso
CZ2 C 0.722175 -0.0079957 0.699763 0.1764 Uiso
CZ3 C 0.745971 0.00914158 0.681256 0.1783 Uiso
CH2 C 0.728885 0.00584399 0.681521 0.1836 Uiso
N N 0.811987 -0.0544166 0.728013 0.1633 Uiso
CA C 0.829926 -0.0563136 0.735876 0.1549 Uiso
C C 0.836139 -0.0731708 0.721182 0.1595 Uiso
O O 0.825992 -0.084515 0.712498 0.1591 Uiso
CB C 0.833007 -0.0551805 0.775908 0.1459 Uiso
SG S 0.822223 -0.0716048 0.80196 0.1410 Uiso
N N 0.852844 -0.0745331 0.717502 0.1568 Uiso
CA C 0.860559 -0.0899134 0.703787 0.1687 Uiso
C C 0.86816 -0.100965 0.73307 0.1527 Uiso
O O 0.879046 -0.094968 0.753165 0.1487 Uiso
CB C 0.874603 -0.0854954 0.677232 0.1833 Uiso
CG C 0.882267 -0.101309 0.660181 0.2379 Uiso
OD1 O 0.873075 -0.113226 0.650544 0.2651 Uiso
ND2 N 0.899086 -0.101729 0.657216 0.2969 Uiso
N N 0.86224 -0.116803 0.735956 0.1345 Uiso
CA C 0.869408 -0.12844 0.761981 0.1334 Uiso
C C 0.878027 -0.143579 0.744454 0.1484 Uiso
O O 0.88354 -0.155458 0.76214 0.1629 Uiso
CB C 0.85623 -0.13431 0.789093 0.1384 Uiso
CG C 0.84169 -0.144445 0.773154 0.1254 Uiso
OD1 O 0.841525 -0.148366 0.741039 0.1456 Uiso
OD2 O 0.829913 -0.148404 0.793647 0.1411 Uiso
N N 0.879059 -0.143031 0.709427 0.1682 Uiso
CA C 0.887131 -0.156591 0.689649 0.1873 Uiso
C C 0.877913 -0.173588 0.688934 0.2126 Uiso
O O 0.884877 -0.185951 0.674902 0.2449 Uiso
N N 0.862431 -0.174581 0.703099 0.1858 Uiso
CA C 0.853289 -0.190751 0.703046 0.2021 Uiso
C C 0.834204 -0.18935 0.696295 0.2080 Uiso
O O 0.824235 -0.199994 0.708818 0.2351 Uiso
CB C 0.856307 -0.200287 0.73765 0.2028 Uiso
CG C 0.848617 -0.191706 0.769474 0.2124 Uiso
CD C 0.847776 -0.204158 0.799472 0.2328 Uiso
NE N 0.836216 -0.198556 0.827165 0.2449 Uiso
CZ C 0.836483 -0.204514 0.860155 0.2663 Uiso
NH1 N 0.847827 -0.216419 0.869103 0.2798 Uiso
NH2 N 0.825482 -0.198606 0.884115 0.2381 Uiso
N N 0.829009 -0.176389 0.676676 0.2020 Uiso
CA C 0.811108 -0.174148 0.667992 0.1992 Uiso
C C 0.810943 -0.172366 0.627722 0.2311 Uiso
O O 0.811566 -0.158284 0.613531 0.2404 Uiso
CB C 0.803673 -0.157928 0.685492 0.1899 Uiso
OG1 O 0.807912 -0.157788 0.722479 0.1665 Uiso
CG2 C 0.784396 -0.157418 0.681415 0.1690 Uiso
N N 0.811579 -0.186753 0.608818 0.2617 Uiso
CA C 0.811617 -0.187313 0.570083 0.2875 Uiso
C C 0.798338 -0.175867 0.553324 0.3092 Uiso
O O 0.783569 -0.17546 0.564735 0.3247 Uiso
CB C 0.80776 -0.205889 0.562617 0.3026 Uiso
CG C 0.817016 -0.214649 0.592217 0.3033 Uiso
CD C 0.812012 -0.204056 0.623777 0.2717 Uiso
N N 0.803902 -0.166267 0.526822 0.3307 Uiso
CA C 0.792481 -0.154783 0.508288 0.3540 Uiso
C C 0.785147 -0.140625 0.531084 0.3620 Uiso
O O 0.770468 -0.135659 0.526239 0.3998 Uiso
N N 0.794951 -0.134666 0.55674 0.3451 Uiso
CA C 0.789171 -0.120979 0.579535 0.3369 Uiso
C C 0.797599 -0.104479 0.567462 0.3341 Uiso
O O 0.810357 -0.104593 0.548267 0.3298 Uiso
CB C 0.793627 -0.124608 0.618296 0.3383 Uiso
OG O 0.811363 -0.122889 0.624783 0.3403 Uiso
N N 0.789973 -0.0903208 0.577788 0.3168 Uiso
CA C 0.79667 -0.073731 0.568574 0.3142 Uiso
C C 0.806143 -0.0673777 0.600928 0.2894 Uiso
O O 0.805251 -0.0750297 0.629681 0.2923 Uiso
CB C 0.782168 -0.061572 0.558911 0.3434 Uiso
CG C 0.772377 -0.0668175 0.525763 0.4111 Uiso
CD C 0.777521 -0.0561354 0.493621 0.4896 Uiso
NE N 0.76857 -0.0397238 0.492668 0.5484 Uiso
CZ C 0.772568 -0.0267754 0.471354 0.5798 Uiso
NH1 N 0.785542 -0.0279849 0.448876 0.5775 Uiso
NH2 N 0.763516 -0.0125028 0.472466 0.5959 Uiso
N N 0.815615 -0.0536908 0.595951 0.2522 Uiso
CA C 0.825368 -0.0458479 0.624253 0.2289 Uiso
C C 0.822121 -0.0268773 0.619541 0.2151 Uiso
O O 0.833809 -0.0169336 0.613028 0.2059 Uiso
CB C 0.844288 -0.050024 0.620203 0.2168 Uiso
CG C 0.85511 -0.0423084 0.649273 0.2053 Uiso
OD1 O 0.848617 -0.034491 0.674002 0.2135 Uiso
ND2 N 0.871776 -0.044231 0.646017 0.2076 Uiso
N N 0.80599 -0.0220264 0.62285 0.2139 Uiso
CA C 0.800795 -0.00436708 0.617926 0.2149 Uiso
C C 0.809287 0.0085559 0.642072 0.2073 Uiso
O O 0.810968 0.023376 0.632196 0.2295 Uiso
CB C 0.781404 -0.0028265 0.619249 0.2361 Uiso
CG C 0.772772 -0.0123118 0.588776 0.2600 Uiso
CD1 C 0.75347 -0.0119681 0.592694 0.2660 Uiso
CD2 C 0.778285 -0.00418883 0.553854 0.2847 Uiso
N N 0.814902 0.00323393 0.673287 0.1904 Uiso
CA C 0.823573 0.0151256 0.696692 0.1871 Uiso
C C 0.842734 0.0149983 0.690708 0.1983 Uiso
O O 0.852016 0.0248401 0.70707 0.2025 Uiso
CB C 0.819384 0.0115734 0.735506 0.1777 Uiso
SG S 0.797599 0.0175447 0.745778 0.1852 Uiso
N N 0.848642 0.00370501 0.667621 0.2138 Uiso
CA C 0.866709 0.00247001 0.659202 0.2447 Uiso
C C 0.878053 6.366e-05 0.690973 0.2314 Uiso
O O 0.890339 0.0095108 0.696453 0.2192 Uiso
CB C 0.872578 0.018054 0.638497 0.3143 Uiso
CG C 0.873839 0.0144381 0.599604 0.3945 Uiso
OD1 O 0.88447 0.0040997 0.588272 0.4514 Uiso
ND2 N 0.862647 0.0222301 0.578821 0.4258 Uiso
N N 0.874081 -0.0128721 0.711836 0.2106 Uiso
CA C 0.884024 -0.0165516 0.743342 0.2206 Uiso
C C 0.883235 -0.0352931 0.752635 0.2016 Uiso
O O 0.871343 -0.0443328 0.74223 0.1809 Uiso
CB C 0.87706 -0.00744822 0.777285 0.2246 Uiso
CG1 C 0.857784 -0.00991823 0.780171 0.2457 Uiso
CG2 C 0.88298 0.0108604 0.779429 0.2532 Uiso
CD1 C 0.850603 -0.00614956 0.816575 0.2764 Uiso
N N 0.896769 -0.0417355 0.76958 0.1902 Uiso
CA C 0.896196 -0.0597003 0.7798 0.1778 Uiso
C C 0.883757 -0.0597003 0.8112 0.1539 Uiso
O O 0.882917 -0.0473248 0.831481 0.1439 Uiso
CB C 0.914492 -0.0633672 0.791502 0.1872 Uiso
CG C 0.921405 -0.0461535 0.802251 0.2220 Uiso
CD C 0.913843 -0.0343891 0.774902 0.2067 Uiso
N N 0.873609 -0.0730435 0.81443 0.1383 Uiso
CA C 0.86131 -0.0738583 0.843236 0.1279 Uiso
C C 0.869853 -0.072687 0.879429 0.1375 Uiso
O O 0.862303 -0.0661809 0.904925 0.1465 Uiso
CB C 0.850705 -0.0900534 0.84035 0.1203 Uiso
SG S 0.838622 -0.0915303 0.799339 0.1294 Uiso
N N 0.885705 -0.0785182 0.881679 0.1349 Uiso
CA C 0.894974 -0.077818 0.915066 0.1598 Uiso
C C 0.896489 -0.0595476 0.928939 0.1597 Uiso
O O 0.89682 -0.056772 0.961081 0.1726 Uiso
CB C 0.912608 -0.0857118 0.910962 0.1573 Uiso
OG O 0.921876 -0.0772196 0.884221 0.1924 Uiso
N N 0.896845 -0.0470829 0.905031 0.1621 Uiso
CA C 0.897966 -0.0290926 0.915648 0.1835 Uiso
C C 0.882573 -0.0239871 0.938312 0.1852 Uiso
O O 0.883617 -0.0123755 0.960578 0.2024 Uiso
CB C 0.899137 -0.0177102 0.883083 0.1824 Uiso
N N 0.868402 -0.0328995 0.933043 0.1614 Uiso
CA C 0.852729 -0.0295892 0.952291 0.1662 Uiso
C C 0.8525 -0.0363499 0.990205 0.1643 Uiso
O O 0.840175 -0.0335488 1.00937 0.1825 Uiso
CB C 0.837743 -0.037152 0.931772 0.1605 Uiso
CG C 0.83549 -0.0298565 0.894626 0.1887 Uiso
CD1 C 0.821943 -0.0399403 0.87469 0.1923 Uiso
CD2 C 0.830957 -0.0110004 0.897036 0.1812 Uiso
N N 0.866085 -0.0448421 1.00154 0.1625 Uiso
CA C 0.866632 -0.0519848 1.03704 0.1587 Uiso
C C 0.877887 -0.0419137 1.0618 0.1755 Uiso
O O 0.879021 -0.0458734 1.09354 0.1887 Uiso
CB C 0.873036 -0.0704589 1.03588 0.1673 Uiso
CG C 0.86308 -0.082376 1.01128 0.1866 Uiso
CD1 C 0.871076 -0.0998698 1.01226 0.2109 Uiso
CD2 C 0.844619 -0.0835219 1.0229 0.1730 Uiso
N N 0.88615 -0.0289016 1.04718 0.1869 Uiso
CA C 0.897622 -0.0177102 1.06693 0.1891 Uiso
C C 0.889257 -0.00853044 1.09783 0.1887 Uiso
O O 0.874055 -0.00527105 1.09733 0.1891 Uiso
CB C 0.905185 -0.00439254 1.04183 0.1892 Uiso
OG O 0.914836 0.00772832 1.06097 0.2401 Uiso
N N 0.899328 -0.00426522 1.12462 0.1968 Uiso
CA C 0.892886 0.00515646 1.15489 0.2025 Uiso
C C 0.888442 0.0231977 1.14313 0.2123 Uiso
O O 0.878588 0.0320337 1.16031 0.2394 Uiso
CB C 0.906242 0.00533471 1.18443 0.2021 Uiso
CB C 0.905923 0.00527105 1.18494 0.2092 Uiso
OG O 0.922386 0.0100965 1.1717 0.1836 Uiso
OG O 0.907859 -0.0117007 1.19786 0.2137 Uiso
N N 0.895712 0.0284815 1.1134 0.2182 Uiso
CA C 0.892567 0.0452241 1.0978 0.2238 Uiso
C C 0.877505 0.0421429 1.07302 0.2110 Uiso
O O 0.878791 0.032161 1.04792 0.2125 Uiso
CB C 0.908113 0.0508643 1.07641 0.2494 Uiso
CG C 0.906649 0.0691475 1.06291 0.3024 Uiso
OD1 O 0.892427 0.0748005 1.05462 0.2984 Uiso
OD2 O 0.919763 0.0780599 1.06124 0.3499 Uiso
N N 0.863284 0.0506988 1.07977 0.1959 Uiso
CA C 0.847993 0.0479996 1.05833 0.1748 Uiso
C C 0.847216 0.0574595 1.02346 0.1692 Uiso
O O 0.834828 0.0557534 1.00395 0.1596 Uiso
CB C 0.831543 0.0517938 1.07916 0.1782 Uiso
CG1 C 0.83027 0.0708027 1.08822 0.1748 Uiso
CG2 C 0.830792 0.0405769 1.11247 0.1873 Uiso
CD1 C 0.813705 0.0756917 1.10553 0.1983 Uiso
N N 0.860241 0.0674032 1.01522 0.1671 Uiso
CA C 0.860343 0.0771814 0.982527 0.1714 Uiso
C C 0.854932 0.0673141 0.949299 0.1665 Uiso
O O 0.843867 0.0731326 0.929522 0.1693 Uiso
CB C 0.877849 0.0854954 0.976755 0.1869 Uiso
OG1 O 0.881822 0.0959102 1.00654 0.2149 Uiso
CG2 C 0.877544 0.0966104 0.944348 0.2106 Uiso
N N 0.862456 0.0524558 0.943104 0.1484 Uiso
CA C 0.858255 0.0426267 0.911412 0.1595 Uiso
C C 0.839717 0.0373175 0.912127 0.1536 Uiso
O O 0.831021 0.0383361 0.885042 0.1749 Uiso
CB C 0.869815 0.0269918 0.908129 0.1595 Uiso
N N 0.833771 0.0313589 0.942707 0.1382 Uiso
CA C 0.815997 0.0260497 0.946307 0.1431 Uiso
C C 0.803774 0.040857 0.938841 0.1455 Uiso
O O 0.791068 0.0389599 0.919911 0.1496 Uiso
CB C 0.812725 0.0185887 0.983215 0.1397 Uiso
OG O 0.818213 0.00141325 0.98483 0.1551 Uiso
N N 0.80781 0.0556643 0.953377 0.1481 Uiso
CA C 0.797179 0.0705735 0.948002 0.1591 Uiso
C C 0.797128 0.0762647 0.90932 0.1667 Uiso
O O 0.783556 0.0795241 0.894441 0.1648 Uiso
CB C 0.802718 0.0852917 0.972413 0.1790 Uiso
CG1 C 0.793258 0.101869 0.962378 0.1904 Uiso
CG2 C 0.799076 0.0804662 1.01062 0.1855 Uiso
N N 0.812088 0.0773087 0.892826 0.1559 Uiso
CA C 0.81312 0.0826689 0.855812 0.1823 Uiso
C C 0.803265 0.0708663 0.831587 0.1771 Uiso
O O 0.794786 0.0766339 0.806964 0.1830 Uiso
CB C 0.831581 0.0838402 0.843077 0.2205 Uiso
CG C 0.841334 0.0981637 0.860896 0.2843 Uiso
OD1 O 0.833746 0.109623 0.876755 0.2902 Uiso
ND2 N 0.858318 0.0975271 0.858434 0.3141 Uiso
N N 0.804436 0.0543274 0.838418 0.1577 Uiso
CA C 0.795333 0.0420283 0.816972 0.1473 Uiso
C C 0.77621 0.0431233 0.824385 0.1421 Uiso
O O 0.765871 0.0423594 0.799975 0.1432 Uiso
CB C 0.802094 0.0241781 0.82428 0.1546 Uiso
SG S 0.793729 0.00790657 0.794918 0.1771 Uiso
N N 0.771537 0.0453641 0.857983 0.1401 Uiso
CA C 0.753636 0.0468028 0.868256 0.1382 Uiso
C C 0.74536 0.0620303 0.849352 0.1473 Uiso
O O 0.730553 0.0613428 0.838947 0.1532 Uiso
CB C 0.752057 0.0486744 0.908129 0.1301 Uiso
N N 0.754934 0.0757936 0.844798 0.1525 Uiso
CA C 0.748237 0.09069 0.826477 0.1627 Uiso
C C 0.743527 0.086132 0.78851 0.1691 Uiso
O O 0.73082 0.0921669 0.774981 0.1950 Uiso
CB C 0.761339 0.105154 0.826742 0.1750 Uiso
CG C 0.763287 0.113468 0.862511 0.1779 Uiso
CD C 0.776706 0.127307 0.861875 0.2066 Uiso
CE C 0.778514 0.134985 0.898783 0.2325 Uiso
NZ N 0.793436 0.146507 0.90204 0.2398 Uiso
N N 0.753789 0.0755644 0.771169 0.1747 Uiso
CA C 0.749905 0.0705989 0.734685 0.2006 Uiso
C C 0.734181 0.0592293 0.73397 0.1863 Uiso
O O 0.723168 0.0609354 0.711227 0.1844 Uiso
CB C 0.764904 0.0612155 0.717422 0.2380 Uiso
CG C 0.780793 0.072114 0.71226 0.3271 Uiso
CD C 0.793627 0.0634945 0.687743 0.3739 Uiso
CE C 0.80986 0.0742658 0.683507 0.4154 Uiso
NZ N 0.819919 0.0761501 0.716972 0.4397 Uiso
N N 0.733239 0.0475286 0.759228 0.1603 Uiso
CA C 0.718877 0.0357387 0.761293 0.1578 Uiso
C C 0.702071 0.0452241 0.766429 0.1465 Uiso
O O 0.69023 0.0427795 0.746361 0.1474 Uiso
CB C 0.721488 0.0224211 0.791846 0.1617 Uiso
CG1 C 0.737148 0.0113569 0.78438 0.1487 Uiso
CG2 C 0.7057 0.0113187 0.796771 0.1367 Uiso
CD1 C 0.741859 -7.6392e-05 0.814801 0.1435 Uiso
N N 0.701371 0.0565937 0.79227 0.1558 Uiso
CA C 0.685787 0.0658754 0.800028 0.1662 Uiso
C C 0.680338 0.0781236 0.770374 0.2080 Uiso
O O 0.66567 0.0838275 0.769368 0.2050 Uiso
CB C 0.687137 0.075157 0.835982 0.1601 Uiso
CG1 C 0.698748 0.0906264 0.833175 0.1570 Uiso
CG2 C 0.669719 0.0799188 0.849458 0.1759 Uiso
N N 0.692077 0.0819941 0.746308 0.2211 Uiso
CA C 0.688435 0.0931855 0.716363 0.2660 Uiso
C C 0.68291 0.0826689 0.684274 0.2962 Uiso
O O 0.677358 0.0896333 0.657507 0.3195 Uiso
CB C 0.704376 0.103218 0.7067 0.2363 Uiso
OG O 0.709227 0.114117 0.734632 0.2662 Uiso
N N 0.684285 0.0658754 0.687928 0.3359 Uiso
CA C 0.68035 0.0533853 0.660446 0.3658 Uiso
C C 0.661965 0.0527869 0.647393 0.3724 Uiso
O O 0.658184 0.0441928 0.621209 0.3886 Uiso
CB C 0.685532 0.0358151 0.673922 0.3979 Uiso
CG C 0.686831 0.0228285 0.644931 0.4637 Uiso
OD1 O 0.695743 0.0262407 0.618323 0.4884 Uiso
OD2 O 0.679243 0.0089506 0.64922 0.5027 Uiso
N N 0.650392 0.0614064 0.665741 0.3673 Uiso
CA C 0.632707 0.0612282 0.654065 0.3511 Uiso
C C 0.619708 0.0542638 0.680118 0.3402 Uiso
O O 0.605117 0.0603115 0.680435 0.3432 Uiso
N N 0.624572 0.0416973 0.701696 0.3047 Uiso
CA C 0.612731 0.0345165 0.727642 0.2714 Uiso
C C 0.615341 0.0416336 0.764735 0.2159 Uiso
O O 0.606976 0.0362607 0.78994 0.1964 Uiso
CB C 0.614017 0.0152147 0.728145 0.3312 Uiso
CG C 0.611037 0.0076392 0.692085 0.4025 Uiso
OD1 O 0.597172 0.00931982 0.677152 0.4319 Uiso
ND2 N 0.62424 -0.000165516 0.676967 0.4288 Uiso
N N 0.626812 0.0538818 0.767886 0.1817 Uiso
CA C 0.63011 0.0615974 0.80196 0.1695 Uiso
C C 0.636438 0.048649 0.828754 0.1593 Uiso
O O 0.645299 0.0365536 0.81962 0.1698 Uiso
N N 0.631167 0.0506861 0.861875 0.1453 Uiso
CA C 0.636909 0.0391127 0.889543 0.1324 Uiso
C C 0.628315 0.0218736 0.889278 0.1363 Uiso
O O 0.63272 0.0107076 0.910194 0.1215 Uiso
CB C 0.635737 0.0474776 0.925841 0.1203 Uiso
CG C 0.649832 0.0605152 0.93156 0.1264 Uiso
SD S 0.652162 0.0667411 0.976914 0.1517 Uiso
CE C 0.663646 0.0485089 0.993991 0.1587 Uiso
N N 0.616028 0.0196582 0.86545 0.1417 Uiso
CA C 0.607205 0.00334852 0.862326 0.1477 Uiso
C C 0.619759 -0.0103511 0.85065 0.1435 Uiso
O O 0.616016 -0.0255022 0.85388 0.1529 Uiso
CB C 0.592105 0.0044944 0.836909 0.1458 Uiso
CG C 0.577934 0.0156731 0.851312 0.1560 Uiso
OD1 O 0.570066 0.0117644 0.878688 0.1634 Uiso
ND2 N 0.574866 0.029882 0.833573 0.1693 Uiso
N N 0.634655 -0.00486362 0.837809 0.1455 Uiso
CA C 0.648164 -0.0165261 0.826927 0.1484 Uiso
C C 0.654135 -0.0271064 0.858831 0.1567 Uiso
O O 0.661151 -0.0410098 0.854568 0.1896 Uiso
CB C 0.662946 -0.00663337 0.811439 0.1583 Uiso
N N 0.65164 -0.0203457 0.890708 0.1340 Uiso
CA C 0.656338 -0.0292072 0.923273 0.1364 Uiso
C C 0.640423 -0.0374066 0.938285 0.1450 Uiso
O O 0.629155 -0.0287107 0.952185 0.1336 Uiso
CB C 0.664232 -0.0170354 0.950199 0.1350 Uiso
CG C 0.68198 -0.0122864 0.940324 0.1339 Uiso
CD1 C 0.696393 -0.0215807 0.94681 0.1358 Uiso
CD2 C 0.687378 0.00272465 0.921976 0.1217 Uiso
NE1 N 0.710334 -0.0132031 0.933837 0.1346 Uiso
CE2 C 0.705229 0.00175702 0.918534 0.1346 Uiso
CE3 C 0.678873 0.0169208 0.908076 0.1283 Uiso
CZ2 C 0.714841 0.0144381 0.901589 0.1192 Uiso
CZ3 C 0.688448 0.0295382 0.891184 0.1279 Uiso
CH2 C 0.706247 0.0281632 0.888246 0.1158 Uiso
N N 0.639761 -0.0542638 0.935929 0.1534 Uiso
CA C 0.625094 -0.0638637 0.94824 0.1584 Uiso
C C 0.62065 -0.0606298 0.987213 0.1517 Uiso
O O 0.60569 -0.0581598 0.99595 0.1600 Uiso
CB C 0.627767 -0.0832927 0.942389 0.1743 Uiso
CB C 0.627564 -0.0831272 0.941701 0.1758 Uiso
CG1 C 0.612642 -0.0933892 0.956845 0.1899 Uiso
CG1 C 0.641556 -0.0901426 0.965529 0.1706 Uiso
CG2 C 0.630275 -0.087036 0.903099 0.1736 Uiso
CG2 C 0.610745 -0.0925616 0.946599 0.1910 Uiso
N N 0.633408 -0.0597258 1.01027 0.1550 Uiso
CA C 0.629868 -0.0567593 1.04779 0.1539 Uiso
C C 0.622636 -0.0389472 1.05361 0.1472 Uiso
O O 0.612362 -0.0362862 1.07731 0.1532 Uiso
CB C 0.645745 -0.0594839 1.07022 0.1617 Uiso
N N 0.628226 -0.0266735 1.03241 0.1406 Uiso
CA C 0.621529 -0.00949807 1.03601 0.1239 Uiso
C C 0.602736 -0.00985457 1.02584 0.1335 Uiso
O O 0.591876 -0.00297929 1.04472 0.1246 Uiso
CB C 0.63081 0.003183 1.01202 0.1083 Uiso
CG C 0.622827 0.0204476 1.01424 0.1089 Uiso
CD1 C 0.62517 0.0322629 1.04043 0.1294 Uiso
CD2 C 0.610401 0.0275393 0.990575 0.1194 Uiso
NE1 N 0.614921 0.046179 1.03463 0.1210 Uiso
CE2 C 0.605805 0.0436835 1.00418 0.1115 Uiso
CE3 C 0.602736 0.0218863 0.959042 0.1160 Uiso
CZ2 C 0.593875 0.0541747 0.987398 0.1244 Uiso
CZ3 C 0.590934 0.032352 0.942362 0.1170 Uiso
CH2 C 0.58663 0.0483052 0.95666 0.1163 Uiso
N N 0.598955 -0.0177229 0.995765 0.1313 Uiso
CA C 0.581512 -0.0187033 0.983241 0.1643 Uiso
C C 0.569773 -0.0277812 1.0098 0.1644 Uiso
O O 0.555755 -0.0217463 1.01792 0.1672 Uiso
CB C 0.581041 -0.0280486 0.947869 0.1918 Uiso
CG C 0.564744 -0.0253494 0.927827 0.2891 Uiso
CD C 0.563191 -0.037865 0.897433 0.3642 Uiso
NE N 0.57978 -0.041379 0.881653 0.4359 Uiso
CZ C 0.585968 -0.0569375 0.876596 0.4622 Uiso
NH1 N 0.576763 -0.0704462 0.886048 0.4671 Uiso
NH2 N 0.601412 -0.0589746 0.862882 0.4768 Uiso
N N 0.575859 -0.0418374 1.02452 0.1515 Uiso
CA C 0.56552 -0.0516792 1.0489 0.1555 Uiso
C C 0.565457 -0.0462808 1.08713 0.1505 Uiso
O O 0.553081 -0.0496421 1.1058 0.1629 Uiso
CB C 0.570473 -0.0704334 1.04673 0.1510 Uiso
CG C 0.565762 -0.0782127 1.0116 0.1627 Uiso
OD1 O 0.553081 -0.073209 0.995447 0.1863 Uiso
ND2 N 0.575833 -0.0903335 0.999365 0.1570 Uiso
N N 0.578558 -0.0371392 1.09857 0.1422 Uiso
CA C 0.579997 -0.0325303 1.13566 0.1522 Uiso
C C 0.582276 -0.0138397 1.14496 0.1602 Uiso
O O 0.580315 -0.00916704 1.17572 0.1820 Uiso
CB C 0.594384 -0.0430342 1.15168 0.1487 Uiso
CG C 0.592551 -0.0618521 1.14255 0.1620 Uiso
CD C 0.607014 -0.0722541 1.15632 0.1624 Uiso
NE N 0.60653 -0.0740748 1.19473 0.1758 Uiso
CZ C 0.617442 -0.0837002 1.21271 0.1749 Uiso
NH1 N 0.629435 -0.0921924 1.19542 0.1762 Uiso
NH2 N 0.61641 -0.0847442 1.24771 0.1843 Uiso
N N 0.586248 -0.00323393 1.11888 0.1397 Uiso
CA C 0.588884 0.0148582 1.1255 0.1360 Uiso
C C 0.575884 0.0260879 1.10752 0.1411 Uiso
O O 0.569939 0.0385143 1.12301 0.1624 Uiso
CB C 0.606454 0.0202057 1.11281 0.1237 Uiso
SG S 0.623273 0.00805936 1.13349 0.1397 Uiso
N N 0.57209 0.0220136 1.07435 0.1408 Uiso
CA C 0.56002 0.0316008 1.05298 0.1515 Uiso
C C 0.54338 0.0344019 1.0726 0.1720 Uiso
O O 0.535537 0.0222173 1.08549 0.1712 Uiso
CB C 0.556481 0.0220646 1.01848 0.1468 Uiso
CG C 0.546652 0.0323011 0.991158 0.1379 Uiso
CD C 0.544487 0.0221664 0.95703 0.1425 Uiso
CE C 0.537306 0.0331923 0.927139 0.1535 Uiso
NZ N 0.536733 0.0238598 0.892588 0.1649 Uiso
N N 0.538376 0.0505715 1.07509 0.2106 Uiso
CA C 0.522512 0.0552569 1.09227 0.2305 Uiso
C C 0.522308 0.054633 1.13233 0.2501 Uiso
O O 0.50871 0.0559571 1.1484 0.2807 Uiso
N N 0.536975 0.0516792 1.14872 0.2290 Uiso
CA C 0.537968 0.0511572 1.18719 0.2109 Uiso
C C 0.545251 0.0681035 1.1996 0.2156 Uiso
O O 0.550064 0.078862 1.1781 0.1953 Uiso
CB C 0.549682 0.0365663 1.20027 0.2140 Uiso
OG1 O 0.567048 0.0403732 1.19163 0.1949 Uiso
CG2 C 0.544322 0.0195054 1.18343 0.2004 Uiso
N N 0.546079 0.0706244 1.23423 0.2247 Uiso
CA C 0.553018 0.0863612 1.24821 0.2467 Uiso
C C 0.572281 0.0846551 1.24755 0.2371 Uiso
O O 0.580099 0.080428 1.27442 0.2465 Uiso
CB C 0.546804 0.0891877 1.28618 0.3074 Uiso
CG C 0.554227 0.10523 1.30291 0.3655 Uiso
OD1 O 0.557512 0.11786 1.28369 0.4047 Uiso
OD2 O 0.556837 0.105128 1.33556 0.4212 Uiso
N N 0.579971 0.08808 1.21702 0.2135 Uiso
CA C 0.598369 0.0862593 1.21329 0.2119 Uiso
C C 0.608988 0.0992969 1.23344 0.2223 Uiso
O O 0.624075 0.096394 1.24019 0.2102 Uiso
CB C 0.604009 0.0852153 1.17392 0.2053 Uiso
CG1 C 0.59744 0.0687783 1.15719 0.2012 Uiso
CG2 C 0.597694 0.100392 1.15361 0.2161 Uiso
N N 0.601208 0.113506 1.24369 0.2329 Uiso
CA C 0.610197 0.126632 1.2636 0.2439 Uiso
C C 0.616474 0.119261 1.2991 0.2342 Uiso
O O 0.629384 0.124939 1.31371 0.2346 Uiso
CB C 0.598318 0.141987 1.26939 0.2984 Uiso
CG C 0.606912 0.158246 1.2834 0.3892 Uiso
CD C 0.609586 0.158284 1.3237 0.4542 Uiso
OE1 O 0.598407 0.152911 1.34387 0.4904 Uiso
NE2 N 0.624355 0.164688 1.3355 0.4676 Uiso
N N 0.6076 0.10635 1.31252 0.2253 Uiso
CA C 0.612349 0.0981383 1.34578 0.2102 Uiso
C C 0.630365 0.0908556 1.34469 0.2190 Uiso
O O 0.638691 0.089315 1.37209 0.2133 Uiso
CB C 0.599833 0.0841967 1.35462 0.2213 Uiso
N N 0.636476 0.0863484 1.31319 0.2050 Uiso
CA C 0.653639 0.0792694 1.30943 0.2124 Uiso
C C 0.667682 0.0921288 1.31649 0.2172 Uiso
O O 0.682222 0.0874434 1.32354 0.2196 Uiso
CB C 0.655943 0.0710955 1.27292 0.1972 Uiso
CG C 0.645949 0.0552569 1.27059 0.2026 Uiso
CD1 C 0.630428 0.0532198 1.25483 0.1973 Uiso
CD2 C 0.649768 0.0394692 1.28766 0.1997 Uiso
NE1 N 0.62424 0.0371774 1.26137 0.1918 Uiso
CE2 C 0.635852 0.0284433 1.28149 0.2005 Uiso
CE3 C 0.66357 0.0335616 1.30784 0.2063 Uiso
CZ2 C 0.635292 0.0118535 1.29486 0.1969 Uiso
CZ3 C 0.663009 0.0170481 1.32126 0.2029 Uiso
CH2 C 0.648902 0.00641693 1.31462 0.2109 Uiso
N N 0.663455 0.108438 1.31475 0.2180 Uiso
CA C 0.676238 0.121349 1.32155 0.2313 Uiso
C C 0.672304 0.13142 1.35507 0.2434 Uiso
O O 0.681904 0.142917 1.36489 0.2406 Uiso
CB C 0.678428 0.133304 1.28965 0.2376 Uiso
CG1 C 0.66152 0.141745 1.28036 0.2343 Uiso
CG2 C 0.685418 0.123284 1.25796 0.2389 Uiso
CD1 C 0.663239 0.155827 1.25369 0.3045 Uiso
N N 0.65877 0.126518 1.3736 0.2549 Uiso
CA C 0.654212 0.135545 1.40585 0.2955 Uiso
C C 0.668242 0.134208 1.43344 0.2905 Uiso
O O 0.676314 0.120954 1.43725 0.2954 Uiso
CB C 0.636934 0.129586 1.42062 0.3493 Uiso
CG C 0.635534 0.110985 1.43272 0.4296 Uiso
CD C 0.642689 0.108018 1.46968 0.4942 Uiso
NE N 0.639252 0.0910083 1.48388 0.5426 Uiso
CZ C 0.644612 0.0764175 1.46963 0.5560 Uiso
NH1 N 0.647082 0.0750806 1.435 0.5660 Uiso
NH2 N 0.647184 0.0629852 1.48997 0.5820 Uiso
N N 0.671858 0.14857 1.45041 0.2965 Uiso
CA C 0.684794 0.149181 1.47771 0.2909 Uiso
C C 0.702733 0.151995 1.4646 0.2890 Uiso
O O 0.714332 0.155038 1.48584 0.3062 Uiso
N N 0.705343 0.151116 1.43002 0.2765 Uiso
CA C 0.722442 0.153344 1.41583 0.2713 Uiso
C C 0.727357 0.171844 1.41075 0.2847 Uiso
O O 0.716675 0.182488 1.40267 0.2960 Uiso
CB C 0.724365 0.143999 1.38059 0.2443 Uiso
SG S 0.717006 0.122087 1.38051 0.2386 Uiso
N N 0.743667 0.175574 1.41528 0.3104 Uiso
CA C 0.750173 0.192712 1.41006 0.3480 Uiso
C C 0.757226 0.191999 1.37241 0.3656 Uiso
O O 0.770582 0.184258 1.36648 0.3831 Uiso
CB C 0.764191 0.196187 1.4373 0.3687 Uiso
CG C 0.771817 0.21405 1.43572 0.4172 Uiso
CD C 0.782155 0.218035 1.46881 0.4414 Uiso
NE N 0.792519 0.203546 1.47996 0.4984 Uiso
CZ C 0.793207 0.197639 1.513 0.5217 Uiso
NH1 N 0.784167 0.205036 1.53855 0.5342 Uiso
NH2 N 0.802769 0.184117 1.52041 0.5447 Uiso
N N 0.747957 0.199243 1.34694 0.3859 Uiso
CA C 0.753114 0.198594 1.30948 0.4166 Uiso
C C 0.761708 0.214241 1.29288 0.4353 Uiso
O O 0.777445 0.213834 1.28877 0.4463 Uiso
CB C 0.738141 0.193144 1.28594 0.4143 Uiso
CG C 0.732806 0.174479 1.28229 0.4250 Uiso
CD1 C 0.748212 0.163097 1.28345 0.4207 Uiso
CD2 C 0.720367 0.169718 1.31078 0.4439 Uiso
OXT O 0.752745 0.226375 1.28194 0.4456 Uiso
CL Cl 0.895483 0.399938 0.694333 0.2714 Uiso
CL Cl 0.104517 0.600062 0.194333 0.2714 Uiso
CL Cl 0.100062 0.395483 0.444333 0.2714 Uiso
CL Cl 0.899938 0.604517 0.944333 0.2714 Uiso
CL Cl 0.604517 0.899938 0.0556669 0.2714 Uiso
CL Cl 0.395483 0.100062 0.555667 0.2714 Uiso
CL Cl 0.399938 0.895483 0.305667 0.2714 Uiso
CL Cl 0.600062 0.104517 0.805667 0.2714 Uiso
NA Na 0.101232 0.183264 0.837727 0.2656 Uiso
NA Na 0.898768 0.816736 0.337727 0.2656 Uiso
NA Na 0.316736 0.601232 0.587727 0.2656 Uiso
NA Na 0.683264 0.398768 0.0877271 0.2656 Uiso
NA Na 0.398768 0.683264 0.912273 0.2656 Uiso
NA Na 0.601232 0.316736 0.412273 0.2656 Uiso
NA Na 0.183264 0.101232 0.162273 0.2656 Uiso
NA Na 0.816736 0.898768 0.662273 0.2656 Uiso
O O 0.177471 0.190407 0.703759 0.1451 Uiso
O O 0.822529 0.809593 0.203759 0.1451 Uiso
O O 0.309593 0.677471 0.453759 0.1451 Uiso
O O 0.690407 0.322529 0.953759 0.1451 Uiso
O O 0.322529 0.690407 0.0462414 0.1451 Uiso
O O 0.677471 0.309593 0.546241 0.1451 Uiso
O O 0.190407 0.177471 0.296241 0.1451 Uiso
O O 0.809593 0.822529 0.796241 0.1451 Uiso
O O 0.147538 0.150925 0.867274 0.1783 Uiso
O O 0.852462 0.849075 0.367274 0.1783 Uiso
O O 0.349075 0.647538 0.617274 0.1783 Uiso
O O 0.650925 0.352462 0.117274 0.1783 Uiso
O O 0.352462 0.650925 0.882726 0.1783 Uiso
O O 0.647538 0.349075 0.382726 0.1783 Uiso
O O 0.150925 0.147538 0.132726 0.1783 Uiso
O O 0.849075 0.852462 0.632726 0.1783 Uiso
O O 0.147029 0.169336 0.394545 0.1430 Uiso
O O 0.852971 0.830664 0.894545 0.1430 Uiso
O O 0.330664 0.647029 0.144545 0.1430 Uiso
O O 0.669336 0.352971 0.644545 0.1430 Uiso
O O 0.352971 0.669336 0.355455 0.1430 Uiso
O O 0.647029 0.330664 0.855455 0.1430 Uiso
O O 0.169336 0.147029 0.605455 0.1430 Uiso
O O 0.830664 0.852971 0.105455 0.1430 Uiso
O O 0.122927 0.165669 0.813581 0.1834 Uiso
O O 0.877073 0.834331 0.313581 0.1834 Uiso
O O 0.334331 0.622927 0.563581 0.1834 Uiso
O O 0.665669 0.377073 0.063581 0.1834 Uiso
O O 0.377073 0.665669 0.936419 0.1834 Uiso
O O 0.622927 0.334331 0.436419 0.1834 Uiso
O O 0.165669 0.122927 0.186419 0.1834 Uiso
O O 0.834331 0.877073 0.686419 0.1834 Uiso
O O 0.0113697 0.459129 0.400714 0.2318 Uiso
O O 0.98863 0.540871 0.900714 0.2318 Uiso
O O 0.0408713 0.51137 0.150714 0.2318 Uiso
O O 0.959129 0.48863 0.650714 0.2318 Uiso
O O 0.48863 0.959129 0.349286 0.2318 Uiso
O O 0.51137 0.0408713 0.849286 0.2318 Uiso
O O 0.459129 0.0113697 0.599286 0.2318 Uiso
O O 0.540871 0.98863 0.0992857 0.2318 Uiso
O O 0.98476 0.141147 0.505692 0.1839 Uiso
O O 0.0152402 0.858853 0.0056916 0.1839 Uiso
O O 0.358853 0.48476 0.255692 0.1839 Uiso
O O 0.641147 0.51524 0.755692 0.1839 Uiso
O O 0.51524 0.641147 0.244308 0.1839 Uiso
O O 0.48476 0.358853 0.744308 0.1839 Uiso
O O 0.141147 0.98476 0.494308 0.1839 Uiso
O O 0.858853 0.0152402 0.994308 0.1839 Uiso
O O 0.993507 0.151753 0.441593 0.2865 Uiso
O O 0.00649332 0.848247 0.941593 0.2865 Uiso
O O 0.348247 0.493507 0.191593 0.2865 Uiso
O O 0.651753 0.506493 0.691593 0.2865 Uiso
O O 0.506493 0.651753 0.308407 0.2865 Uiso
O O 0.493507 0.348247 0.808407 0.2865 Uiso
O O 0.151753 0.993507 0.558407 0.2865 Uiso
O O 0.848247 0.00649332 0.0584068 0.2865 Uiso
O O 0.0490182 0.274426 0.668175 0.2536 Uiso
O O 0.950982 0.725574 0.168175 0.2536 Uiso
O O 0.225574 0.549018 0.418175 0.2536 Uiso
O O 0.774426 0.450982 0.918175 0.2536 Uiso
O O 0.450982 0.774426 0.0818252 0.2536 Uiso
O O 0.549018 0.225574 0.581825 0.2536 Uiso
O O 0.274426 0.0490182 0.331825 0.2536 Uiso
O O 0.725574 0.950982 0.831825 0.2536 Uiso
O O 0.929961 0.25012 0.0527931 0.3316 Uiso
O O 0.0700387 0.74988 0.552793 0.3316 Uiso
O O 0.24988 0.429961 0.802793 0.3316 Uiso
O O 0.75012 0.570039 0.302793 0.3316 Uiso
O O 0.570039 0.75012 0.697207 0.3316 Uiso
O O 0.429961 0.24988 0.197207 0.3316 Uiso
O O 0.25012 0.929961 0.947207 0.3316 Uiso
O O 0.74988 0.0700387 0.447207 0.3316 Uiso
O O 0.863653 0.400052 0.629149 0.2181 Uiso
O O 0.136347 0.599948 0.129149 0.2181 Uiso
O O 0.0999478 0.363653 0.379149 0.2181 Uiso
O O 0.900052 0.636347 0.879149 0.2181 Uiso
O O 0.636347 0.900052 0.120851 0.2181 Uiso
O O 0.363653 0.0999478 0.620851 0.2181 Uiso
O O 0.400052 0.863653 0.370851 0.2181 Uiso
O O 0.599948 0.136347 0.870851 0.2181 Uiso
O O 0.0210969 0.210205 0.519168 0.1397 Uiso
O O 0.978903 0.789795 0.0191679 0.1397 Uiso
O O 0.289795 0.521097 0.269168 0.1397 Uiso
O O 0.710205 0.478903 0.769168 0.1397 Uiso
O O 0.478903 0.710205 0.230832 0.1397 Uiso
O O 0.521097 0.289795 0.730832 0.1397 Uiso
O O 0.210205 0.0210969 0.480832 0.1397 Uiso
O O 0.789795 0.978903 0.980832 0.1397 Uiso
O O 0.858356 0.367242 0.311755 0.1690 Uiso
O O 0.141644 0.632758 0.811755 0.1690 Uiso
O O 0.132758 0.358356 0.0617549 0.1690 Uiso
O O 0.867242 0.641644 0.561755 0.1690 Uiso
O O 0.641644 0.867242 0.438245 0.1690 Uiso
O O 0.358356 0.132758 0.938245 0.1690 Uiso
O O 0.367242 0.858356 0.688245 0.1690 Uiso
O O 0.632758 0.141644 0.188245 0.1690 Uiso
O O 0.0998061 0.160461 0.870451 0.3024 Uiso
O O 0.900194 0.839539 0.370451 0.3024 Uiso
O O 0.339539 0.599806 0.620451 0.3024 Uiso
O O 0.660461 0.400194 0.120451 0.3024 Uiso
O O 0.400194 0.660461 0.879549 0.3024 Uiso
O O 0.599806 0.339539 0.379549 0.3024 Uiso
O O 0.160461 0.0998061 0.129549 0.3024 Uiso
O O 0.839539 0.900194 0.629549 0.3024 Uiso
O O 0.0729544 0.139148 0.250436 0.1597 Uiso
O O 0.927046 0.860852 0.750436 0.1597 Uiso
O O 0.360852 0.572954 0.000436484 0.1597 Uiso
O O 0.639148 0.427046 0.500436 0.1597 Uiso
O O 0.427046 0.639148 0.499564 0.1597 Uiso
O O 0.572954 0.360852 0.999564 0.1597 Uiso
O O 0.139148 0.0729544 0.749564 0.1597 Uiso
O O 0.860852 0.927046 0.249564 0.1597 Uiso
O O 0.116854 0.287769 0.497881 0.2639 Uiso
O O 0.883146 0.712231 0.997881 0.2639 Uiso
O O 0.212231 0.616854 0.247881 0.2639 Uiso
O O 0.787769 0.383146 0.747881 0.2639 Uiso
O O 0.383146 0.787769 0.252119 0.2639 Uiso
O O 0.616854 0.212231 0.752119 0.2639 Uiso
O O 0.287769 0.116854 0.502119 0.2639 Uiso
O O 0.712231 0.883146 0.00211882 0.2639 Uiso
O O 0.102149 0.355745 0.220677 0.1955 Uiso
O O 0.897851 0.644255 0.720677 0.1955 Uiso
O O 0.144255 0.602149 0.970677 0.1955 Uiso
O O 0.855745 0.397851 0.470677 0.1955 Uiso
O O 0.397851 0.855745 0.529323 0.1955 Uiso
O O 0.602149 0.144255 0.0293225 0.1955 Uiso
O O 0.355745 0.102149 0.779323 0.1955 Uiso
O O 0.644255 0.897851 0.279323 0.1955 Uiso
O O 0.131203 0.0777671 0.820571 0.2670 Uiso
O O 0.868797 0.922233 0.320571 0.2670 Uiso
O O 0.422233 0.631203 0.570571 0.2670 Uiso
O O 0.577767 0.368797 0.0705707 0.2670 Uiso
O O 0.368797 0.577767 0.929429 0.2670 Uiso
O O 0.631203 0.422233 0.429429 0.2670 Uiso
O O 0.0777671 0.131203 0.179429 0.2670 Uiso
O O 0.922233 0.868797 0.679429 0.2670 Uiso
O O 0.974332 0.342847 0.747603 0.3022 Uiso
O O 0.0256677 0.657153 0.247603 0.3022 Uiso
O O 0.157153 0.474332 0.497603 0.3022 Uiso
O O 0.842847 0.525668 0.997603 0.3022 Uiso
O O 0.525668 0.842847 0.00239719 0.3022 Uiso
O O 0.474332 0.157153 0.502397 0.3022 Uiso
O O 0.342847 0.974332 0.252397 0.3022 Uiso
O O 0.657153 0.0256677 0.752397 0.3022 Uiso
O O 0.959958 0.106987 0.516679 0.2561 Uiso
O O 0.0400421 0.893013 0.0166791 0.2561 Uiso
O O 0.393013 0.459958 0.266679 0.2561 Uiso
O O 0.606987 0.540042 0.766679 0.2561 Uiso
O O 0.540042 0.606987 0.233321 0.2561 Uiso
O O 0.459958 0.393013 0.733321 0.2561 Uiso
O O 0.106987 0.959958 0.483321 0.2561 Uiso
O O 0.893013 0.0400421 0.983321 0.2561 Uiso
O O 0.946984 0.165771 0.74379 0.3811 Uiso
O O 0.053016 0.834229 0.24379 0.3811 Uiso
O O 0.334229 0.446984 0.49379 0.3811 Uiso
O O 0.665771 0.553016 0.99379 0.3811 Uiso
O O 0.553016 0.665771 0.00620973 0.3811 Uiso
O O 0.446984 0.334229 0.50621 0.3811 Uiso
O O 0.165771 0.946984 0.25621 0.3811 Uiso
O O 0.834229 0.053016 0.75621 0.3811 Uiso
O O 0.0979091 0.315741 0.522213 0.3280 Uiso
O O 0.902091 0.684259 0.0222126 0.3280 Uiso
O O 0.184259 0.597909 0.272213 0.3280 Uiso
O O 0.815741 0.402091 0.772213 0.3280 Uiso
O O 0.402091 0.815741 0.227787 0.3280 Uiso
O O 0.597909 0.184259 0.727787 0.3280 Uiso
O O 0.315741 0.0979091 0.477787 0.3280 Uiso
O O 0.684259 0.902091 0.977787 0.3280 Uiso
O O 0.0344783 0.30059 0.638178 0.4530 Uiso
O O 0.965522 0.69941 0.138178 0.4530 Uiso
O O 0.19941 0.534478 0.388178 0.4530 Uiso
O O 0.80059 0.465522 0.888178 0.4530 Uiso
O O 0.465522 0.80059 0.111822 0.4530 Uiso
O O 0.534478 0.19941 0.611822 0.4530 Uiso
O O 0.30059 0.0344783 0.361822 0.4530 Uiso
O O 0.69941 0.965522 0.861822 0.4530 Uiso
O O 0.0220391 0.426471 0.255943 0.2486 Uiso
O O 0.977961 0.573529 0.755943 0.2486 Uiso
O O 0.0735289 0.522039 0.00594349 0.2486 Uiso
O O 0.926471 0.477961 0.505943 0.2486 Uiso
O O 0.477961 0.926471 0.494057 0.2486 Uiso
O O 0.522039 0.0735289 0.994057 0.2486 Uiso
O O 0.426471 0.0220391 0.744057 0.2486 Uiso
O O 0.573529 0.977961 0.244057 0.2486 Uiso
O O 0.0139543 0.177764 0.446068 0.2955 Uiso
O O 0.986046 0.822236 0.946068 0.2955 Uiso
O O 0.322236 0.513954 0.196068 0.2955 Uiso
O O 0.677764 0.486046 0.696068 0.2955 Uiso
O O 0.486046 0.677764 0.303932 0.2955 Uiso
O O 0.513954 0.322236 0.803932 0.2955 Uiso
O O 0.177764 0.0139543 0.553932 0.2955 Uiso
O O 0.822236 0.986046 0.0539324 0.2955 Uiso
O O 0.887093 0.165516 0.218189 0.2956 Uiso
O O 0.112907 0.834484 0.718189 0.2956 Uiso
O O 0.334484 0.387093 0.968189 0.2956 Uiso
O O 0.665516 0.612907 0.468189 0.2956 Uiso
O O 0.612907 0.665516 0.531811 0.2956 Uiso
O O 0.387093 0.334484 0.0318113 0.2956 Uiso
O O 0.165516 0.887093 0.781811 0.2956 Uiso
O O 0.834484 0.112907 0.281811 0.2956 Uiso
O O 0.96542 0.411154 0.251681 0.2971 Uiso
O O 0.0345801 0.588846 0.751681 0.2971 Uiso
O O 0.0888455 0.46542 0.00168086 0.2971 Uiso
O O 0.911154 0.53458 0.501681 0.2971 Uiso
O O 0.53458 0.911154 0.498319 0.2971 Uiso
O O 0.46542 0.0888455 0.998319 0.2971 Uiso
O O 0.411154 0.96542 0.748319 0.2971 Uiso
O O 0.588846 0.0345801 0.248319 0.2971 Uiso
O O 0.0708027 0.331732 0.595366 0.3428 Uiso
O O 0.929197 0.668268 0.0953658 0.3428 Uiso
O O 0.168268 0.570803 0.345366 0.3428 Uiso
O O 0.831732 0.429197 0.845366 0.3428 Uiso
O O 0.429197 0.831732 0.154634 0.3428 Uiso
O O 0.570803 0.168268 0.654634 0.3428 Uiso
O O 0.331732 0.0708027 0.404634 0.3428 Uiso
O O 0.668268 0.929197 0.904634 0.3428 Uiso
O O 0.922029 0.428712 0.445326 0.3805 Uiso
O O 0.0779708 0.571288 0.945326 0.3805 Uiso
O O 0.0712881 0.422029 0.195326 0.3805 Uiso
O O 0.928712 0.577971 0.695326 0.3805 Uiso
O O 0.577971 0.928712 0.304674 0.3805 Uiso
O O 0.422029 0.0712881 0.804674 0.3805 Uiso
O O 0.428712 0.922029 0.554674 0.3805 Uiso
O O 0.571288 0.0779708 0.0546737 0.3805 Uiso
O O 0.0348602 0.131089 0.147842 0.2899 Uiso
O O 0.96514 0.868911 0.647842 0.2899 Uiso
O O 0.368911 0.53486 0.897842 0.2899 Uiso
O O 0.631089 0.46514 0.397842 0.2899 Uiso
O O 0.46514 0.631089 0.602158 0.2899 Uiso
O O 0.53486 0.368911 0.102158 0.2899 Uiso
O O 0.131089 0.0348602 0.852158 0.2899 Uiso
O O 0.868911 0.96514 0.352158 0.2899 Uiso
O O 0.0559699 0.418514 0.259888 0.1738 Uiso
O O 0.94403 0.581486 0.759888 0.1738 Uiso
O O 0.0814864 0.55597 0.00988842 0.1738 Uiso
O O 0.918514 0.44403 0.509888 0.1738 Uiso
O O 0.44403 0.918514 0.490112 0.1738 Uiso
O O 0.55597 0.0814864 0.990112 0.1738 Uiso
O O 0.418514 0.0559699 0.740112 0.1738 Uiso
O O 0.581486 0.94403 0.240112 0.1738 Uiso
O O 0.881007 0.420309 0.420042 0.3550 Uiso
O O 0.118993 0.579691 0.920042 0.3550 Uiso
O O 0.0796912 0.381007 0.170042 0.3550 Uiso
O O 0.920309 0.618993 0.670042 0.3550 Uiso
O O 0.618993 0.920309 0.329958 0.3550 Uiso
O O 0.381007 0.0796912 0.829958 0.3550 Uiso
O O 0.420309 0.881007 0.579958 0.3550 Uiso
O O 0.579691 0.118993 0.0799583 0.3550 Uiso
O O 0.959792 0.153242 0.686046 0.3897 Uiso
O O 0.0402077 0.846758 0.186046 0.3897 Uiso
O O 0.346758 0.459792 0.436046 0.3897 Uiso
O O 0.653242 0.540208 0.936046 0.3897 Uiso
O O 0.540208 0.653242 0.0639539 0.3897 Uiso
O O 0.459792 0.346758 0.563954 0.3897 Uiso
O O 0.153242 0.959792 0.313954 0.3897 Uiso
O O 0.846758 0.0402077 0.813954 0.3897 Uiso
O O 0.917509 0.13128 0.365078 0.3574 Uiso
O O 0.0824906 0.86872 0.865078 0.3574 Uiso
O O 0.36872 0.417509 0.115078 0.3574 Uiso
O O 0.63128 0.582491 0.615078 0.3574 Uiso
O O 0.582491 0.63128 0.384922 0.3574 Uiso
O O 0.417509 0.36872 0.884922 0.3574 Uiso
O O 0.13128 0.917509 0.634922 0.3574 Uiso
O O 0.86872 0.0824906 0.134922 0.3574 Uiso
O O 0.238725 0.131369 0.670161 0.3341 Uiso
O O 0.761275 0.868631 0.170161 0.3341 Uiso
O O 0.368631 0.738725 0.420161 0.3341 Uiso
O O 0.631369 0.261275 0.920161 0.3341 Uiso
O O 0.261275 0.631369 0.0798395 0.3341 Uiso
O O 0.738725 0.368631 0.579839 0.3341 Uiso
O O 0.131369 0.238725 0.329839 0.3341 Uiso
O O 0.868631 0.761275 0.829839 0.3341 Uiso
O O 0.814036 0.252896 0.440719 0.2758 Uiso
O O 0.185964 0.747104 0.940719 0.2758 Uiso
O O 0.247104 0.314036 0.190719 0.2758 Uiso
O O 0.752896 0.685964 0.690719 0.2758 Uiso
O O 0.685964 0.752896 0.309281 0.2758 Uiso
O O 0.314036 0.247104 0.809281 0.2758 Uiso
O O 0.252896 0.814036 0.559281 0.2758 Uiso
O O 0.747104 0.185964 0.0592805 0.2758 Uiso
O O 0.0436453 0.251457 0.131347 0.4875 Uiso
O O 0.956355 0.748543 0.631347 0.4875 Uiso
O O 0.248543 0.543645 0.881347 0.4875 Uiso
O O 0.751457 0.456355 0.381347 0.4875 Uiso
O O 0.456355 0.751457 0.618653 0.4875 Uiso
O O 0.543645 0.248543 0.118653 0.4875 Uiso
O O 0.251457 0.0436453 0.868653 0.4875 Uiso
O O 0.748543 0.956355 0.368653 0.4875 Uiso
O O 0.206984 0.239947 0.477654 0.4236 Uiso
O O 0.793016 0.760053 0.977654 0.4236 Uiso
O O 0.260053 0.706984 0.227654 0.4236 Uiso
O O 0.739947 0.293016 0.727654 0.4236 Uiso
O O 0.293016 0.739947 0.272346 0.4236 Uiso
O O 0.706984 0.260053 0.772346 0.4236 Uiso
O O 0.239947 0.206984 0.522346 0.4236 Uiso
O O 0.760053 0.793016 0.0223465 0.4236 Uiso
O O 0.0446002 0.0946497 0.285041 0.3577 Uiso
O O 0.9554 0.90535 0.785041 0.3577 Uiso
O O 0.40535 0.5446 0.0350406 0.3577 Uiso
O O 0.59465 0.4554 0.535041 0.3577 Uiso
O O 0.4554 0.59465 0.464959 0.3577 Uiso
O O 0.5446 0.40535 0.964959 0.3577 Uiso
O O 0.0946497 0.0446002 0.714959 0.3577 Uiso
O O 0.90535 0.9554 0.214959 0.3577 Uiso
O O 0.814342 0.407004 0.541355 0.3469 Uiso
O O 0.185658 0.592996 0.0413548 0.3469 Uiso
O O 0.0929962 0.314342 0.291355 0.3469 Uiso
O O 0.907004 0.685658 0.791355 0.3469 Uiso
O O 0.685658 0.907004 0.208645 0.3469 Uiso
O O 0.314342 0.0929962 0.708645 0.3469 Uiso
O O 0.407004 0.814342 0.458645 0.3469 Uiso
O O 0.592996 0.185658 0.958645 0.3469 Uiso
O O 0.0133686 0.232104 0.110723 0.3503 Uiso
O O 0.986631 0.767896 0.610723 0.3503 Uiso
O O 0.267896 0.513369 0.860723 0.3503 Uiso
O O 0.732104 0.486631 0.360723 0.3503 Uiso
O O 0.486631 0.732104 0.639277 0.3503 Uiso
O O 0.513369 0.267896 0.139277 0.3503 Uiso
O O 0.232104 0.0133686 0.889277 0.3503 Uiso
O O 0.767896 0.986631 0.389277 0.3503 Uiso
O O 0.999465 0.486286 0.580857 0.4708 Uiso
O O 0.000534744 0.513714 0.080857 0.4708 Uiso
O O 0.013714 0.499465 0.330857 0.4708 Uiso
O O 0.986286 0.500535 0.830857 0.4708 Uiso
O O 0.500535 0.986286 0.169143 0.4708 Uiso
O O 0.499465 0.013714 0.669143 0.4708 Uiso
O O 0.486286 0.999465 0.419143 0.4708 Uiso
O O 0.513714 0.000534744 0.919143 0.4708 Uiso
O O 0.0745586 0.297076 0.599523 0.5726 Uiso
O O 0.925441 0.702924 0.0995225 0.5726 Uiso
O O 0.202924 0.574559 0.349523 0.5726 Uiso
O O 0.797076 0.425441 0.849523 0.5726 Uiso
O O 0.425441 0.797076 0.150477 0.5726 Uiso
O O 0.574559 0.202924 0.650477 0.5726 Uiso
O O 0.297076 0.0745586 0.400477 0.5726 Uiso
O O 0.702924 0.925441 0.900477 0.5726 Uiso
O O 0.955667 0.498025 0.482843 0.3221 Uiso
O O 0.0443328 0.501975 0.982843 0.3221 Uiso
O O 0.00197509 0.455667 0.232843 0.3221 Uiso
O O 0.998025 0.544333 0.732843 0.3221 Uiso
O O 0.544333 0.998025 0.267157 0.3221 Uiso
O O 0.455667 0.00197509 0.767157 0.3221 Uiso
O O 0.498025 0.955667 0.517157 0.3221 Uiso
O O 0.501975 0.0443328 0.0171572 0.3221 Uiso
O O 0.106083 0.228017 0.279534 0.2392 Uiso
O O 0.893917 0.771983 0.779534 0.2392 Uiso
O O 0.271983 0.606083 0.0295336 0.2392 Uiso
O O 0.728017 0.393917 0.529534 0.2392 Uiso
O O 0.393917 0.728017 0.470466 0.2392 Uiso
O O 0.606083 0.271983 0.970466 0.2392 Uiso
O O 0.228017 0.106083 0.720466 0.2392 Uiso
O O 0.771983 0.893917 0.220466 0.2392 Uiso
O O 0.990706 0.0881564 0.5323 0.3734 Uiso
O O 0.00929436 0.911844 0.0323 0.3734 Uiso
O O 0.411844 0.490706 0.2823 0.3734 Uiso
O O 0.588156 0.509294 0.7823 0.3734 Uiso
O O 0.509294 0.588156 0.2177 0.3734 Uiso
O O 0.490706 0.411844 0.7177 0.3734 Uiso
O O 0.0881564 0.990706 0.4677 0.3734 Uiso
O O 0.911844 0.00929436 0.9677 0.3734 Uiso
O O 0.926078 0.217692 0.0788455 0.2836 Uiso
O O 0.073922 0.782308 0.578846 0.2836 Uiso
O O 0.282308 0.426078 0.828846 0.2836 Uiso
O O 0.717692 0.573922 0.328846 0.2836 Uiso
O O 0.573922 0.717692 0.671154 0.2836 Uiso
O O 0.426078 0.282308 0.171154 0.2836 Uiso
O O 0.217692 0.926078 0.921154 0.2836 Uiso
O O 0.782308 0.073922 0.421154 0.2836 Uiso
O O 0.998549 0.412262 0.211411 0.4931 Uiso
O O 0.00145145 0.587738 0.711411 0.4931 Uiso
O O 0.0877378 0.498549 0.961411 0.4931 Uiso
O O 0.912262 0.501451 0.461411 0.4931 Uiso
O O 0.501451 0.912262 0.538589 0.4931 Uiso
O O 0.498549 0.0877378 0.0385891 0.4931 Uiso
O O 0.412262 0.998549 0.788589 0.4931 Uiso
O O 0.587738 0.00145145 0.288589 0.4931 Uiso
O O 0.816761 0.311705 0.141514 0.6170 Uiso
O O 0.183239 0.688295 0.641514 0.6170 Uiso
O O 0.188295 0.316761 0.891514 0.6170 Uiso
O O 0.811705 0.683239 0.391514 0.6170 Uiso
O O 0.683239 0.811705 0.608486 0.6170 Uiso
O O 0.316761 0.188295 0.108486 0.6170 Uiso
O O 0.311705 0.816761 0.858486 0.6170 Uiso
O O 0.688295 0.183239 0.358486 0.6170 Uiso
O O 0.0395711 0.358813 0.147286 0.4420 Uiso
O O 0.960429 0.641187 0.647286 0.4420 Uiso
O O 0.141187 0.539571 0.897286 0.4420 Uiso
O O 0.858813 0.460429 0.397286 0.4420 Uiso
O O 0.460429 0.858813 0.602714 0.4420 Uiso
O O 0.539571 0.141187 0.102714 0.4420 Uiso
O O 0.358813 0.0395711 0.852714 0.4420 Uiso
O O 0.641187 0.960429 0.352714 0.4420 Uiso
O O 0.993061 0.301914 0.107996 0.3739 Uiso
O O 0.00693894 0.698086 0.607996 0.3739 Uiso
O O 0.198086 0.493061 0.857996 0.3739 Uiso
O O 0.801914 0.506939 0.357996 0.3739 Uiso
O O 0.506939 0.801914 0.642004 0.3739 Uiso
O O 0.493061 0.198086 0.142004 0.3739 Uiso
O O 0.301914 0.993061 0.892004 0.3739 Uiso
O O 0.698086 0.00693894 0.392004 0.3739 Uiso
O O 0.852041 0.227712 0.143659 0.5376 Uiso
O O 0.147959 0.772288 0.643659 0.5376 Uiso
O O 0.272288 0.352041 0.893659 0.5376 Uiso
O O 0.727712 0.647959 0.393659 0.5376 Uiso
O O 0.647959 0.727712 0.606341 0.5376 Uiso
O O 0.352041 0.272288 0.106341 0.5376 Uiso
O O 0.227712 0.852041 0.856341 0.5376 Uiso
O O 0.772288 0.147959 0.356341 0.5376 Uiso
O O 0.0735528 0.314188 0.226423 0.3522 Uiso
O O 0.926447 0.685812 0.726423 0.3522 Uiso
O O 0.185812 0.573553 0.976423 0.3522 Uiso
O O 0.814188 0.426447 0.476423 0.3522 Uiso
O O 0.426447 0.814188 0.523577 0.3522 Uiso
O O 0.573553 0.185812 0.0235772 0.3522 Uiso
O O 0.314188 0.0735528 0.773577 0.3522 Uiso
O O 0.685812 0.926447 0.273577 0.3522 Uiso
O O 0.94869 0.422601 0.191925 0.3513 Uiso
O O 0.05131 0.577399 0.691925 0.3513 Uiso
O O 0.0773995 0.44869 0.941925 0.3513 Uiso
O O 0.922601 0.55131 0.441925 0.3513 Uiso
O O 0.55131 0.922601 0.558075 0.3513 Uiso
O O 0.44869 0.0773995 0.0580755 0.3513 Uiso
O O 0.422601 0.94869 0.808075 0.3513 Uiso
O O 0.577399 0.05131 0.308075 0.3513 Uiso
O O 0.911538 0.448281 0.392666 0.3045 Uiso
O O 0.0884619 0.551719 0.892666 0.3045 Uiso
O O 0.051719 0.411538 0.142666 0.3045 Uiso
O O 0.948281 0.588462 0.642666 0.3045 Uiso
O O 0.588462 0.948281 0.357334 0.3045 Uiso
O O 0.411538 0.051719 0.857334 0.3045 Uiso
O O 0.448281 0.911538 0.607334 0.3045 Uiso
O O 0.551719 0.0884619 0.107334 0.3045 Uiso
O O 0.0954773 0.0535126 0.644293 0.3083 Uiso
O O 0.904523 0.946487 0.144293 0.3083 Uiso
O O 0.446487 0.595477 0.394293 0.3083 Uiso
O O 0.553513 0.404523 0.894293 0.3083 Uiso
O O 0.404523 0.553513 0.105707 0.3083 Uiso
O O 0.595477 0.446487 0.605707 0.3083 Uiso
O O 0.0535126 0.0954773 0.355707 0.3083 Uiso
O O 0.946487 0.904523 0.855707 0.3083 Uiso
O O 0.133559 0.164014 0.935953 0.5343 Uiso
O O 0.866441 0.835986 0.435953 0.5343 Uiso
O O 0.335986 0.633559 0.685953 0.5343 Uiso
O O 0.664014 0.366441 0.185953 0.5343 Uiso
O O 0.366441 0.664014 0.814047 0.5343 Uiso
O O 0.633559 0.335986 0.314047 0.5343 Uiso
O O 0.164014 0.133559 0.0640469 0.5343 Uiso
O O 0.835986 0.866441 0.564047 0.5343 Uiso
O O 0.813043 0.192737 0.289383 0.4732 Uiso
O O 0.186957 0.807263 0.789383 0.4732 Uiso
O O 0.307263 0.313043 0.0393827 0.4732 Uiso
O O 0.692737 0.686957 0.539383 0.4732 Uiso
O O 0.686957 0.692737 0.460617 0.4732 Uiso
O O 0.313043 0.307263 0.960617 0.4732 Uiso
O O 0.192737 0.813043 0.710617 0.4732 Uiso
O O 0.807263 0.186957 0.210617 0.4732 Uiso
O O 0.894019 0.197944 0.726925 0.4092 Uiso
O O 0.105981 0.802056 0.226925 0.4092 Uiso
O O 0.302056 0.394019 0.476925 0.4092 Uiso
O O 0.697944 0.605981 0.976925 0.4092 Uiso
O O 0.605981 0.697944 0.0230749 0.4092 Uiso
O O 0.394019 0.302056 0.523075 0.4092 Uiso
O O 0.197944 0.894019 0.273075 0.4092 Uiso
O O 0.802056 0.105981 0.773075 0.4092 Uiso
O O 0.985002 0.262878 0.0812813 0.5664 Uiso
O O 0.0149983 0.737122 0.581281 0.5664 Uiso
O O 0.237122 0.485002 0.831281 0.5664 Uiso
O O 0.762878 0.514998 0.331281 0.5664 Uiso
O O 0.514998 0.762878 0.668719 0.5664 Uiso
O O 0.485002 0.237122 0.168719 0.5664 Uiso
O O 0.262878 0.985002 0.918719 0.5664 Uiso
O O 0.737122 0.0149983 0.418719 0.5664 Uiso
O O 0.223345 0.103791 0.798331 0.4976 Uiso
O O 0.776655 0.896209 0.298331 0.4976 Uiso
O O 0.396209 0.723345 0.548331 0.4976 Uiso
O O 0.603791 0.276655 0.0483308 0.4976 Uiso
O O 0.276655 0.603791 0.951669 0.4976 Uiso
O O 0.723345 0.396209 0.451669 0.4976 Uiso
O O 0.103791 0.223345 0.201669 0.4976 Uiso
O O 0.896209 0.776655 0.701669 0.4976 Uiso
O O 0.952242 0.428521 0.824648 0.4525 Uiso
O O 0.0477577 0.571479 0.324648 0.4525 Uiso
O O 0.0714791 0.452242 0.574648 0.4525 Uiso
O O 0.928521 0.547758 0.074648 0.4525 Uiso
O O 0.547758 0.928521 0.925352 0.4525 Uiso
O O 0.452242 0.0714791 0.425352 0.4525 Uiso
O O 0.428521 0.952242 0.175352 0.4525 Uiso
O O 0.571479 0.0477577 0.675352 0.4525 Uiso
O O 0.18949 0.325099 0.607148 0.4435 Uiso
O O 0.81051 0.674901 0.107148 0.4435 Uiso
O O 0.174901 0.68949 0.357148 0.4435 Uiso
O O 0.825099 0.31051 0.857148 0.4435 Uiso
O O 0.31051 0.825099 0.142852 0.4435 Uiso
O O 0.68949 0.174901 0.642852 0.4435 Uiso
O O 0.325099 0.18949 0.392852 0.4435 Uiso
O O 0.674901 0.81051 0.892852 0.4435 Uiso
O O 0.004418 0.342313 0.794412 0.5307 Uiso
O O 0.995582 0.657687 0.294412 0.5307 Uiso
O O 0.157687 0.504418 0.544412 0.5307 Uiso
O O 0.842313 0.495582 0.0444124 0.5307 Uiso
O O 0.495582 0.842313 0.955588 0.5307 Uiso
O O 0.504418 0.157687 0.455588 0.5307 Uiso
O O 0.342313 0.004418 0.205588 0.5307 Uiso
O O 0.657687 0.995582 0.705588 0.5307 Uiso
O O 0.934978 0.126136 0.66791 0.5769 Uiso
O O 0.0650223 0.873864 0.16791 0.5769 Uiso
O O 0.373864 0.434978 0.41791 0.5769 Uiso
O O 0.626136 0.565022 0.91791 0.5769 Uiso
O O 0.565022 0.626136 0.0820899 0.5769 Uiso
O O 0.434978 0.373864 0.58209 0.5769 Uiso
O O 0.126136 0.934978 0.33209 0.5769 Uiso
O O 0.873864 0.0650223 0.83209 0.5769 Uiso
O O 0.986771 0.494969 0.386417 0.5051 Uiso
O O 0.0132285 0.505031 0.886417 0.5051 Uiso
O O 0.00503077 0.486771 0.136417 0.5051 Uiso
O O 0.994969 0.513229 0.636417 0.5051 Uiso
O O 0.513229 0.994969 0.363583 0.5051 Uiso
O O 0.486771 0.00503077 0.863583 0.5051 Uiso
O O 0.494969 0.986771 0.613583 0.5051 Uiso
O O 0.505031 0.0132285 0.113583 0.5051 Uiso
O O 0.869077 0.127333 0.617606 0.5038 Uiso
O O 0.130923 0.872667 0.117606 0.5038 Uiso
O O 0.372667 0.369077 0.367606 0.5038 Uiso
O O 0.627333 0.630923 0.867606 0.5038 Uiso
O O 0.630923 0.627333 0.132394 0.5038 Uiso
O O 0.369077 0.372667 0.632394 0.5038 Uiso
O O 0.127333 0.869077 0.382394 0.5038 Uiso
O O 0.872667 0.130923 0.882394 0.5038 Uiso
O O 0.179738 0.315805 0.717208 0.5373 Uiso
O O 0.820262 0.684195 0.217208 0.5373 Uiso
O O 0.184195 0.679738 0.467208 0.5373 Uiso
O O 0.815805 0.320262 0.967208 0.5373 Uiso
O O 0.320262 0.815805 0.0327916 0.5373 Uiso
O O 0.679738 0.184195 0.532792 0.5373 Uiso
O O 0.315805 0.179738 0.282792 0.5373 Uiso
O O 0.684195 0.820262 0.782792 0.5373 Uiso
O O 0.863335 0.24201 0.0179772 0.4937 Uiso
O O 0.136665 0.75799 0.517977 0.4937 Uiso
O O 0.25799 0.363335 0.767977 0.4937 Uiso
O O 0.74201 0.636665 0.267977 0.4937 Uiso
O O 0.636665 0.74201 0.732023 0.4937 Uiso
O O 0.363335 0.25799 0.232023 0.4937 Uiso
O O 0.24201 0.863335 0.982023 0.4937 Uiso
O O 0.75799 0.136665 0.482023 0.4937 Uiso
O O 0.0976417 0.331911 0.409187 0.3000 Uiso
O O 0.902358 0.668089 0.909187 0.3000 Uiso
O O 0.168089 0.597642 0.159187 0.3000 Uiso
O O 0.831911 0.402358 0.659187 0.3000 Uiso
O O 0.402358 0.831911 0.340813 0.3000 Uiso
O O 0.597642 0.168089 0.840813 0.3000 Uiso
O O 0.331911 0.0976417 0.590813 0.3000 Uiso
O O 0.668089 0.902358 0.0908134 0.3000 Uiso
O O 0.055677 0.483383 0.497299 0.5621 Uiso
O O 0.944323 0.516617 0.997299 0.5621 Uiso
O O 0.0166169 0.555677 0.247299 0.5621 Uiso
O O 0.983383 0.444323 0.747299 0.5621 Uiso
O O 0.444323 0.983383 0.252701 0.5621 Uiso
O O 0.555677 0.0166169 0.752701 0.5621 Uiso
O O 0.483383 0.055677 0.502701 0.5621 Uiso
O O 0.516617 0.944323 0.00270129 0.5621 Uiso
O O 0.990655 0.500559 0.489276 0.5346 Uiso
O O 0.00934529 0.499441 0.989276 0.5346 Uiso
O O 0.999441 0.490655 0.239276 0.5346 Uiso
O O 0.00055858 0.509345 0.739276 0.5346 Uiso
O O 0.509345 0.00055858 0.260724 0.5346 Uiso
O O 0.490655 0.999441 0.760724 0.5346 Uiso
O O 0.500559 0.990655 0.510724 0.5346 Uiso
O O 0.499441 0.00934529 0.0107235 0.5346 Uiso
O O 0.953006 0.47675 0.22825 0.7453 Uiso
O O 0.0469938 0.52325 0.72825 0.7453 Uiso
O O 0.0232503 0.453006 0.97825 0.7453 Uiso
O O 0.97675 0.546994 0.47825 0.7453 Uiso
O O 0.546994 0.97675 0.52175 0.7453 Uiso
O O 0.453006 0.0232503 0.0217504 0.7453 Uiso
O O 0.47675 0.953006 0.77175 0.7453 Uiso
O O 0.52325 0.0469938 0.27175 0.7453 Uiso
O O 0.120776 0.253354 0.175695 0.7393 Uiso
O O 0.879224 0.746646 0.675695 0.7393 Uiso
O O 0.246646 0.620776 0.925695 0.7393 Uiso
O O 0.753354 0.379224 0.425695 0.7393 Uiso
O O 0.379224 0.753354 0.574305 0.7393 Uiso
O O 0.620776 0.246646 0.0743053 0.7393 Uiso
O O 0.253354 0.120776 0.824305 0.7393 Uiso
O O 0.746646 0.879224 0.324305 0.7393 Uiso
O O 0.823764 0.214521 0.631876 0.6688 Uiso
O O 0.176236 0.785479 0.131876 0.6688 Uiso
O O 0.285479 0.323764 0.381876 0.6688 Uiso
O O 0.714521 0.676236 0.881876 0.6688 Uiso
O O 0.676236 0.714521 0.118124 0.6688 Uiso
O O 0.323764 0.285479 0.618124 0.6688 Uiso
O O 0.214521 0.823764 0.368124 0.6688 Uiso
O O 0.785479 0.176236 0.868124 0.6688 Uiso
O O 0.898615 0.0808864 0.499682 0.5663 Uiso
O O 0.101385 0.919114 0.999682 0.5663 Uiso
O O 0.419114 0.398615 0.249682 0.5663 Uiso
O O 0.580886 0.601385 0.749682 0.5663 Uiso
O O 0.601385 0.580886 0.250318 0.5663 Uiso
O O 0.398615 0.419114 0.750318 0.5663 Uiso
O O 0.0808864 0.898615 0.500318 0.5663 Uiso
O O 0.919114 0.101385 0.000318452 0.5663 Uiso
O O 0.221791 0.204692 0.806432 0.6753 Uiso
O O 0.778209 0.795308 0.306432 0.6753 Uiso
O O 0.295308 0.721791 0.556432 0.6753 Uiso
O O 0.704692 0.278209 0.0564325 0.6753 Uiso
O O 0.278209 0.704692 0.943568 0.6753 Uiso
O O 0.721791 0.295308 0.443568 0.6753 Uiso
O O 0.204692 0.221791 0.193568 0.6753 Uiso
O O 0.795308 0.778209 0.693568 0.6753 Uiso
O O 0.0549258 0.300475 0.741381 0.5389 Uiso
O O 0.945074 0.699525 0.241381 0.5389 Uiso
O O 0.199525 0.554926 0.491381 0.5389 Uiso
O O 0.800475 0.445074 0.991381 0.5389 Uiso
O O 0.445074 0.800475 0.00861905 0.5389 Uiso
O O 0.554926 0.199525 0.508619 0.5389 Uiso
O O 0.300475 0.0549258 0.258619 0.5389 Uiso
O O 0.699525 0.945074 0.758619 0.5389 Uiso
O O 0.105026 0.283058 0.307201 0.6184 Uiso
O O 0.894974 0.716942 0.807201 0.6184 Uiso
O O 0.216942 0.605026 0.057201 0.6184 Uiso
O O 0.783058 0.394974 0.557201 0.6184 Uiso
O O 0.394974 0.783058 0.442799 0.6184 Uiso
O O 0.605026 0.216942 0.942799 0.6184 Uiso
O O 0.283058 0.105026 0.692799 0.6184 Uiso
O O 0.716942 0.894974 0.192799 0.6184 Uiso
O O 0.0991314 0.0550914 0.796027 0.6791 Uiso
O O 0.900869 0.944909 0.296027 0.6791 Uiso
O O 0.444909 0.599131 0.546027 0.6791 Uiso
O O 0.555091 0.400869 0.0460274 0.6791 Uiso
O O 0.400869 0.555091 0.953973 0.6791 Uiso
O O 0.599131 0.444909 0.453973 0.6791 Uiso
O O 0.0550914 0.0991314 0.203973 0.6791 Uiso
O O 0.944909 0.900869 0.703973 0.6791 Uiso
O O 0.991304 0.467621 0.676382 0.3986 Uiso
O O 0.00869596 0.532379 0.176382 0.3986 Uiso
O O 0.0323791 0.491304 0.426382 0.3986 Uiso
O O 0.967621 0.508696 0.926382 0.3986 Uiso
O O 0.508696 0.967621 0.0736176 0.3986 Uiso
O O 0.491304 0.0323791 0.573618 0.3986 Uiso
O O 0.467621 0.991304 0.323618 0.3986 Uiso
O O 0.532379 0.00869596 0.823618 0.3986 Uiso
O O 0.179776 0.0918868 0.887952 0.5540 Uiso
O O 0.820224 0.908113 0.387952 0.5540 Uiso
O O 0.408113 0.679776 0.637952 0.5540 Uiso
O O 0.591887 0.320224 0.137952 0.5540 Uiso
O O 0.320224 0.591887 0.862048 0.5540 Uiso
O O 0.679776 0.408113 0.362048 0.5540 Uiso
O O 0.0918868 0.179776 0.112048 0.5540 Uiso
O O 0.908113 0.820224 0.612048 0.5540 Uiso
O O 0.7791 0.280219 0.124252 0.4325 Uiso
O O 0.2209 0.719781 0.624252 0.4325 Uiso
O O 0.219781 0.2791 0.874252 0.4325 Uiso
O O 0.780219 0.7209 0.374252 0.4325 Uiso
O O 0.7209 0.780219 0.625748 0.4325 Uiso
O O 0.2791 0.219781 0.125748 0.4325 Uiso
O O 0.280219 0.7791 0.875748 0.4325 Uiso
O O 0.719781 0.2209 0.375748 0.4325 Uiso
O O 0.803851 0.28237 0.560947 0.6604 Uiso
O O 0.196149 0.71763 0.060947 0.6604 Uiso
O O 0.21763 0.303851 0.310947 0.6604 Uiso
O O 0.78237 0.696149 0.810947 0.6604 Uiso
O O 0.696149 0.78237 0.189053 0.6604 Uiso
O O 0.303851 0.21763 0.689053 0.6604 Uiso
O O 0.28237 0.803851 0.439053 0.6604 Uiso
O O 0.71763 0.196149 0.939053 0.6604 Uiso
O O 0.90078 0.250553 0.845961 0.6885 Uiso
O O 0.0992205 0.749447 0.345961 0.6885 Uiso
O O 0.249447 0.40078 0.595961 0.6885 Uiso
O O 0.750553 0.59922 0.0959612 0.6885 Uiso
O O 0.59922 0.750553 0.904039 0.6885 Uiso
O O 0.40078 0.249447 0.404039 0.6885 Uiso
O O 0.250553 0.90078 0.154039 0.6885 Uiso
O O 0.749447 0.0992205 0.654039 0.6885 Uiso
O O 0.130796 0.296847 0.781042 0.7731 Uiso
O O 0.869204 0.703153 0.281042 0.7731 Uiso
O O 0.203153 0.630796 0.531042 0.7731 Uiso
O O 0.796847 0.369204 0.031042 0.7731 Uiso
O O 0.369204 0.796847 0.968958 0.7731 Uiso
O O 0.630796 0.203153 0.468958 0.7731 Uiso
O O 0.296847 0.130796 0.218958 0.7731 Uiso
O O 0.703153 0.869204 0.718958 0.7731 Uiso
O O 0.0187924 0.480226 0.490203 0.6431 Uiso
O O 0.981208 0.519774 0.990203 0.6431 Uiso
O O 0.0197744 0.518792 0.240203 0.6431 Uiso
O O 0.980226 0.481208 0.740203 0.6431 Uiso
O O 0.481208 0.980226 0.259797 0.6431 Uiso
O O 0.518792 0.0197744 0.759797 0.6431 Uiso
O O 0.480226 0.0187924 0.509797 0.6431 Uiso
O O 0.519774 0.981208 0.00979686 0.6431 Uiso
O O 0.108286 0.302079 0.6323 0.4822 Uiso
O O 0.891714 0.697921 0.1323 0.4822 Uiso
O O 0.197921 0.608286 0.3823 0.4822 Uiso
O O 0.802079 0.391714 0.8823 0.4822 Uiso
O O 0.391714 0.802079 0.1177 0.4822 Uiso
O O 0.608286 0.197921 0.6177 0.4822 Uiso
O O 0.302079 0.108286 0.3677 0.4822 Uiso
O O 0.697921 0.891714 0.8677 0.4822 Uiso
O O 0.0568356 0.0752716 0.476462 0.5780 Uiso
O O 0.943164 0.924728 0.976462 0.5780 Uiso
O O 0.424728 0.556836 0.226462 0.5780 Uiso
O O 0.575272 0.443164 0.726462 0.5780 Uiso
O O 0.443164 0.575272 0.273538 0.5780 Uiso
O O 0.556836 0.424728 0.773538 0.5780 Uiso
O O 0.0752716 0.0568356 0.523538 0.5780 Uiso
O O 0.924728 0.943164 0.0235379 0.5780 Uiso
O O 0.0137124 0.0879017 0.207757 0.5788 Uiso
O O 0.986288 0.912098 0.707757 0.5788 Uiso
O O 0.412098 0.513712 0.957757 0.5788 Uiso
O O 0.587902 0.486288 0.457757 0.5788 Uiso
O O 0.486288 0.587902 0.542243 0.5788 Uiso
O O 0.513712 0.412098 0.0422428 0.5788 Uiso
O O 0.0879017 0.0137124 0.792243 0.5788 Uiso
O O 0.912098 0.986288 0.292243 0.5788 Uiso
O O 0.00945988 0.148544 0.946914 0.5165 Uiso
O O 0.99054 0.851456 0.446914 0.5165 Uiso
O O 0.351456 0.50946 0.696914 0.5165 Uiso
O O 0.648544 0.49054 0.196914 0.5165 Uiso
O O 0.49054 0.648544 0.803086 0.5165 Uiso
O O 0.50946 0.351456 0.303086 0.5165 Uiso
O O 0.148544 0.00945988 0.0530859 0.5165 Uiso
O O 0.851456 0.99054 0.553086 0.5165 Uiso
O O 0.813705 0.302869 0.669366 0.3774 Uiso
O O 0.186295 0.697131 0.169366 0.3774 Uiso
O O 0.197131 0.313705 0.419366 0.3774 Uiso
O O 0.802869 0.686295 0.919366 0.3774 Uiso
O O 0.686295 0.802869 0.0806338 0.3774 Uiso
O O 0.313705 0.197131 0.580634 0.3774 Uiso
O O 0.302869 0.813705 0.330634 0.3774 Uiso
O O 0.697131 0.186295 0.830634 0.3774 Uiso
O O 0.156018 0.320375 0.829811 0.4366 Uiso
O O 0.843982 0.679625 0.329811 0.4366 Uiso
O O 0.179625 0.656018 0.579811 0.4366 Uiso
O O 0.820375 0.343982 0.0798108 0.4366 Uiso
O O 0.343982 0.820375 0.920189 0.4366 Uiso
O O 0.656018 0.179625 0.420189 0.4366 Uiso
O O 0.320375 0.156018 0.170189 0.4366 Uiso
O O 0.679625 0.843982 0.670189 0.4366 Uiso
O O 0.116523 0.300284 0.417712 0.4527 Uiso
O O 0.883477 0.699716 0.917712 0.4527 Uiso
O O 0.199716 0.616523 0.167712 0.4527 Uiso
O O 0.800284 0.383477 0.667712 0.4527 Uiso
O O 0.383477 0.800284 0.332288 0.4527 Uiso
O O 0.616523 0.199716 0.832288 0.4527 Uiso
O O 0.300284 0.116523 0.582288 0.4527 Uiso
O O 0.699716 0.883477 0.0822881 0.4527 Uiso
O O 0.908457 0.363741 0.769207 0.5099 Uiso
O O 0.0915431 0.636259 0.269207 0.5099 Uiso
O O 0.136259 0.408457 0.519207 0.5099 Uiso
O O 0.863741 0.591543 0.0192072 0.5099 Uiso
O O 0.591543 0.863741 0.980793 0.5099 Uiso
O O 0.408457 0.136259 0.480793 0.5099 Uiso
O O 0.363741 0.908457 0.230793 0.5099 Uiso
O O 0.636259 0.0915431 0.730793 0.5099 Uiso
O O 0.0332178 0.0930837 0.828302 0.4267 Uiso
O O 0.966782 0.906916 0.328302 0.4267 Uiso
O O 0.406916 0.533218 0.578302 0.4267 Uiso
O O 0.593084 0.466782 0.0783017 0.4267 Uiso
O O 0.466782 0.593084 0.921698 0.4267 Uiso
O O 0.533218 0.406916 0.421698 0.4267 Uiso
O O 0.0930837 0.0332178 0.171698 0.4267 Uiso
O O 0.906916 0.966782 0.671698 0.4267 Uiso
O O 0.946857 0.120266 0.284802 0.4614 Uiso
O O 0.0531434 0.879734 0.784802 0.4614 Uiso
O O 0.379734 0.446857 0.0348023 0.4614 Uiso
O O 0.620266 0.553143 0.534802 0.4614 Uiso
O O 0.553143 0.620266 0.465198 0.4614 Uiso
O O 0.446857 0.379734 0.965198 0.4614 Uiso
O O 0.120266 0.946857 0.715198 0.4614 Uiso
O O 0.879734 0.0531434 0.215198 0.4614 Uiso
O O 0.888557 0.108948 0.396346 0.7048 Uiso
O O 0.111443 0.891052 0.896346 0.7048 Uiso
O O 0.391052 0.388557 0.146346 0.7048 Uiso
O O 0.608948 0.611443 0.646346 0.7048 Uiso
O O 0.611443 0.608948 0.353654 0.7048 Uiso
O O 0.388557 0.391052 0.853654 0.7048 Uiso
O O 0.108948 0.888557 0.603654 0.7048 Uiso
O O 0.891052 0.111443 0.103654 0.7048 Uiso
O O 0.926409 0.275635 0.860126 0.7574 Uiso
O O 0.073591 0.724365 0.360126 0.7574 Uiso
O O 0.224365 0.426409 0.610126 0.7574 Uiso
O O 0.775635 0.573591 0.110126 0.7574 Uiso
O O 0.573591 0.775635 0.889874 0.7574 Uiso
O O 0.426409 0.224365 0.389874 0.7574 Uiso
O O 0.275635 0.926409 0.139874 0.7574 Uiso
O O 0.724365 0.073591 0.639874 0.7574 Uiso
O O 0.0722286 0.0817776 0.80074 0.6554 Uiso
O O 0.927771 0.918222 0.30074 0.6554 Uiso
O O 0.418222 0.572229 0.55074 0.6554 Uiso
O O 0.581778 0.427771 0.0507401 0.6554 Uiso
O O 0.427771 0.581778 0.94926 0.6554 Uiso
O O 0.572229 0.418222 0.44926 0.6554 Uiso
O O 0.0817776 0.0722286 0.19926 0.6554 Uiso
O O 0.918222 0.927771 0.69926 0.6554 Uiso
O O 0.913448 0.136907 0.212735 0.5592 Uiso
O O 0.0865521 0.863093 0.712735 0.5592 Uiso
O O 0.363093 0.413448 0.962735 0.5592 Uiso
O O 0.636907 0.586552 0.462735 0.5592 Uiso
O O 0.586552 0.636907 0.537265 0.5592 Uiso
O O 0.413448 0.363093 0.0372653 0.5592 Uiso
O O 0.136907 0.913448 0.787265 0.5592 Uiso
O O 0.863093 0.0865521 0.287265 0.5592 Uiso
O O 0.11264 0.262025 0.364998 0.5709 Uiso
O O 0.88736 0.737975 0.864998 0.5709 Uiso
O O 0.237975 0.61264 0.114998 0.5709 Uiso
O O 0.762025 0.38736 0.614998 0.5709 Uiso
O O 0.38736 0.762025 0.385002 0.5709 Uiso
O O 0.61264 0.237975 0.885002 0.5709 Uiso
O O 0.262025 0.11264 0.635002 0.5709 Uiso
O O 0.737975 0.88736 0.135002 0.5709 Uiso
O O 0.0877107 0.30553 0.689726 0.5913 Uiso
O O 0.912289 0.69447 0.189726 0.5913 Uiso
O O 0.19447 0.587711 0.439726 0.5913 Uiso
O O 0.80553 0.412289 0.939726 0.5913 Uiso
O O 0.412289 0.80553 0.0602737 0.5913 Uiso
O O 0.587711 0.19447 0.560274 0.5913 Uiso
O O 0.30553 0.0877107 0.310274 0.5913 Uiso
O O 0.69447 0.912289 0.810274 0.5913 Uiso
O O 0.0648186 0.117555 0.918664 0.5745 Uiso
O O 0.935181 0.882445 0.418664 0.5745 Uiso
O O 0.382445 0.564819 0.668664 0.5745 Uiso
O O 0.617555 0.435181 0.168664 0.5745 Uiso
O O 0.435181 0.617555 0.831336 0.5745 Uiso
O O 0.564819 0.382445 0.331336 0.5745 Uiso
O O 0.117555 0.0648186 0.0813358 0.5745 Uiso
O O 0.882445 0.935181 0.581336 0.5745 Uiso
O O 0.0574213 0.331478 0.707386 0.5291 Uiso
O O 0.942579 0.668522 0.207386 0.5291 Uiso
O O 0.168522 0.557421 0.457386 0.5291 Uiso
O O 0.831478 0.442579 0.957386 0.5291 Uiso
O O 0.442579 0.831478 0.0426142 0.5291 Uiso
O O 0.557421 0.168522 0.542614 0.5291 Uiso
O O 0.331478 0.0574213 0.292614 0.5291 Uiso
O O 0.668522 0.942579 0.792614 0.5291 Uiso
O O 0.961435 0.0996661 0.173841 0.7503 Uiso
O O 0.0385652 0.900334 0.673841 0.7503 Uiso
O O 0.400334 0.461435 0.923841 0.7503 Uiso
O O 0.599666 0.538565 0.423841 0.7503 Uiso
O O 0.538565 0.599666 0.576159 0.7503 Uiso
O O 0.461435 0.400334 0.0761586 0.7503 Uiso
O O 0.0996661 0.961435 0.826159 0.7503 Uiso
O O 0.900334 0.0385652 0.326159 0.7503 Uiso
O O 0.952344 0.117504 0.784007 0.6922 Uiso
O O 0.0476559 0.882496 0.284007 0.6922 Uiso
O O 0.382496 0.452344 0.534007 0.6922 Uiso
O O 0.617504 0.547656 0.0340073 0.6922 Uiso
O O 0.547656 0.617504 0.965993 0.6922 Uiso
O O 0.452344 0.382496 0.465993 0.6922 Uiso
O O 0.117504 0.952344 0.215993 0.6922 Uiso
O O 0.882496 0.0476559 0.715993 0.6922 Uiso
O O 0.0529779 0.0573959 0.588085 0.4643 Uiso
O O 0.947022 0.942604 0.0880849 0.4643 Uiso
O O 0.442604 0.552978 0.338085 0.4643 Uiso
O O 0.557396 0.447022 0.838085 0.4643 Uiso
O O 0.447022 0.557396 0.161915 0.4643 Uiso
O O 0.552978 0.442604 0.661915 0.4643 Uiso
O O 0.0573959 0.0529779 0.411915 0.4643 Uiso
O O 0.942604 0.947022 0.911915 0.4643 Uiso
O O 0.0250184 0.0597513 0.544214 0.4843 Uiso
O O 0.974982 0.940249 0.0442142 0.4843 Uiso
O O 0.440249 0.525018 0.294214 0.4843 Uiso
O O 0.559751 0.474982 0.794214 0.4843 Uiso
O O 0.474982 0.559751 0.205786 0.4843 Uiso
O O 0.525018 0.440249 0.705786 0.4843 Uiso
O O 0.0597513 0.0250184 0.455786 0.4843 Uiso
O O 0.940249 0.974982 0.955786 0.4843 Uiso
O O 0.973479 0.0643475 0.488694 0.7846 Uiso
O O 0.0265208 0.935652 0.988694 0.7846 Uiso
O O 0.435652 0.473479 0.238694 0.7846 Uiso
O O 0.564348 0.526521 0.738694 0.7846 Uiso
O O 0.526521 0.564348 0.261306 0.7846 Uiso
O O 0.473479 0.435652 0.761306 0.7846 Uiso
O O 0.0643475 0.973479 0.511306 0.7846 Uiso
O O 0.935652 0.0265208 0.011306 0.7846 Uiso
O O 0.853709 0.406902 0.345088 0.4884 Uiso
O O 0.146291 0.593098 0.845088 0.4884 Uiso
O O 0.093098 0.353709 0.0950882 0.4884 Uiso
O O 0.906902 0.646291 0.595088 0.4884 Uiso
O O 0.646291 0.906902 0.404912 0.4884 Uiso
O O 0.353709 0.093098 0.904912 0.4884 Uiso
O O 0.406902 0.853709 0.654912 0.4884 Uiso
O O 0.593098 0.146291 0.154912 0.4884 Uiso
O O 0.874322 0.430965 0.283929 0.6097 Uiso
O O 0.125678 0.569035 0.783929 0.6097 Uiso
O O 0.0690345 0.374322 0.0339286 0.6097 Uiso
O O 0.930965 0.625678 0.533929 0.6097 Uiso
O O 0.625678 0.930965 0.466071 0.6097 Uiso
O O 0.374322 0.0690345 0.966071 0.6097 Uiso
O O 0.430965 0.874322 0.716071 0.6097 Uiso
O O 0.569035 0.125678 0.216071 0.6097 Uiso
O O 0.01962 0.0635199 0.389435 0.5517 Uiso
O O 0.98038 0.93648 0.889435 0.5517 Uiso
O O 0.43648 0.51962 0.139435 0.5517 Uiso
O O 0.56352 0.48038 0.639435 0.5517 Uiso
O O 0.48038 0.56352 0.360565 0.5517 Uiso
O O 0.51962 0.43648 0.860565 0.5517 Uiso
O O 0.0635199 0.01962 0.610565 0.5517 Uiso
O O 0.93648 0.98038 0.110565 0.5517 Uiso
O O 0.814036 0.366414 0.51329 0.5778 Uiso
O O 0.185964 0.633586 0.0132902 0.5778 Uiso
O O 0.133586 0.314036 0.26329 0.5778 Uiso
O O 0.866414 0.685964 0.76329 0.5778 Uiso
O O 0.685964 0.866414 0.23671 0.5778 Uiso
O O 0.314036 0.133586 0.73671 0.5778 Uiso
O O 0.366414 0.814036 0.48671 0.5778 Uiso
O O 0.633586 0.185964 0.98671 0.5778 Uiso
O O 0.843498 0.418857 0.419142 0.5708 Uiso
O O 0.156502 0.581143 0.919142 0.5708 Uiso
O O 0.0811427 0.343498 0.169142 0.5708 Uiso
O O 0.918857 0.656502 0.669142 0.5708 Uiso
O O 0.656502 0.918857 0.330858 0.5708 Uiso
O O 0.343498 0.0811427 0.830858 0.5708 Uiso
O O 0.418857 0.843498 0.580858 0.5708 Uiso
O O 0.581143 0.156502 0.0808584 0.5708 Uiso
O O 0.957271 0.291397 0.0362192 0.6188 Uiso
O O 0.0427286 0.708603 0.536219 0.6188 Uiso
O O 0.208603 0.457271 0.786219 0.6188 Uiso
O O 0.791397 0.542729 0.286219 0.6188 Uiso
O O 0.542729 0.791397 0.713781 0.6188 Uiso
O O 0.457271 0.208603 0.213781 0.6188 Uiso
O O 0.291397 0.957271 0.963781 0.6188 Uiso
O O 0.708603 0.0427286 0.463781 0.6188 Uiso
O O 0.841461 0.161836 0.545088 0.6074 Uiso
O O 0.158539 0.838164 0.0450879 0.6074 Uiso
O O 0.338164 0.341461 0.295088 0.6074 Uiso
O O 0.661836 0.658539 0.795088 0.6074 Uiso
O O 0.658539 0.661836 0.204912 0.6074 Uiso
O O 0.341461 0.338164 0.704912 0.6074 Uiso
O O 0.161836 0.841461 0.454912 0.6074 Uiso
O O 0.838164 0.158539 0.954912 0.6074 Uiso
O O 0.759302 0.232715 0.985571 0.7889 Uiso
O O 0.240698 0.767285 0.485571 0.7889 Uiso
O O 0.267285 0.259302 0.735571 0.7889 Uiso
O O 0.732715 0.740698 0.235571 0.7889 Uiso
O O 0.740698 0.732715 0.764429 0.7889 Uiso
O O 0.259302 0.267285 0.264429 0.7889 Uiso
O O 0.232715 0.759302 0.0144294 0.7889 Uiso
O O 0.767285 0.240698 0.514429 0.7889 Uiso
O O 0.75142 0.23735 0.599337 0.5195 Uiso
O O 0.24858 0.76265 0.0993372 0.5195 Uiso
O O 0.26265 0.25142 0.349337 0.5195 Uiso
O O 0.73735 0.74858 0.849337 0.5195 Uiso
O O 0.74858 0.73735 0.150663 0.5195 Uiso
O O 0.25142 0.26265 0.650663 0.5195 Uiso
O O 0.23735 0.75142 0.400663 0.5195 Uiso
O O 0.76265 0.24858 0.900663 0.5195 Uiso
O O 0.0204221 0.395672 0.163622 0.7158 Uiso
O O 0.979578 0.604328 0.663622 0.7158 Uiso
O O 0.104328 0.520422 0.913622 0.7158 Uiso
O O 0.895672 0.479578 0.413622 0.7158 Uiso
O O 0.479578 0.895672 0.586378 0.7158 Uiso
O O 0.520422 0.104328 0.0863783 0.7158 Uiso
O O 0.395672 0.0204221 0.836378 0.7158 Uiso
O O 0.604328 0.979578 0.336378 0.7158 Uiso
O O 0.966922 0.345432 0.0877679 0.7385 Uiso
O O 0.0330777 0.654568 0.587768 0.7385 Uiso
O O 0.154568 0.466922 0.837768 0.7385 Uiso
O O 0.845432 0.533078 0.337768 0.7385 Uiso
O O 0.533078 0.845432 0.662232 0.7385 Uiso
O O 0.466922 0.154568 0.162232 0.7385 Uiso
O O 0.345432 0.966922 0.912232 0.7385 Uiso
O O 0.654568 0.0330777 0.412232 0.7385 Uiso
O O 0.883426 0.247879 0.785146 0.5590 Uiso
O O 0.116574 0.752121 0.285146 0.5590 Uiso
O O 0.252121 0.383426 0.535146 0.5590 Uiso
O O 0.747879 0.616574 0.0351458 0.5590 Uiso
O O 0.616574 0.747879 0.964854 0.5590 Uiso
O O 0.383426 0.252121 0.464854 0.5590 Uiso
O O 0.247879 0.883426 0.214854 0.5590 Uiso
O O 0.752121 0.116574 0.714854 0.5590 Uiso
O O 0.840061 0.225356 0.714984 0.6502 Uiso
O O 0.159939 0.774644 0.214984 0.6502 Uiso
O O 0.274644 0.340061 0.464984 0.6502 Uiso
O O 0.725356 0.659939 0.964984 0.6502 Uiso
O O 0.659939 0.725356 0.0350156 0.6502 Uiso
O O 0.340061 0.274644 0.535016 0.6502 Uiso
O O 0.225356 0.840061 0.285016 0.6502 Uiso
O O 0.774644 0.159939 0.785016 0.6502 Uiso
O O 0.799 0.120457 0.413026 0.6591 Uiso
O O 0.201 0.879543 0.913026 0.6591 Uiso
O O 0.379543 0.299 0.163026 0.6591 Uiso
O O 0.620457 0.701 0.663026 0.6591 Uiso
O O 0.701 0.620457 0.336974 0.6591 Uiso
O O 0.299 0.379543 0.836974 0.6591 Uiso
O O 0.120457 0.799 0.586974 0.6591 Uiso
O O 0.879543 0.201 0.0869744 0.6591 Uiso
O O 0.778692 0.150938 0.433703 0.6283 Uiso
O O 0.221308 0.849062 0.933703 0.6283 Uiso
O O 0.349062 0.278692 0.183703 0.6283 Uiso
O O 0.650938 0.721308 0.683703 0.6283 Uiso
O O 0.721308 0.650938 0.316297 0.6283 Uiso
O O 0.278692 0.349062 0.816297 0.6283 Uiso
O O 0.150938 0.778692 0.566297 0.6283 Uiso
O O 0.849062 0.221308 0.0662966 0.6283 Uiso
O O 0.80781 0.23353 0.681016 0.6663 Uiso
O O 0.19219 0.76647 0.181016 0.6663 Uiso
O O 0.26647 0.30781 0.431016 0.6663 Uiso
O O 0.73353 0.69219 0.931016 0.6663 Uiso
O O 0.69219 0.73353 0.0689843 0.6663 Uiso
O O 0.30781 0.26647 0.568984 0.6663 Uiso
O O 0.23353 0.80781 0.318984 0.6663 Uiso
O O 0.76647 0.19219 0.818984 0.6663 Uiso
O O 0.938899 0.151371 0.820571 0.4993 Uiso
O O 0.0611009 0.848629 0.320571 0.4993 Uiso
O O 0.348629 0.438899 0.570571 0.4993 Uiso
O O 0.651371 0.561101 0.0705707 0.4993 Uiso
O O 0.561101 0.651371 0.929429 0.4993 Uiso
O O 0.438899 0.348629 0.429429 0.4993 Uiso
O O 0.151371 0.938899 0.179429 0.4993 Uiso
O O 0.848629 0.0611009 0.679429 0.4993 Uiso
O O 0.860597 0.133953 0.540084 0.6158 Uiso
O O 0.139403 0.866047 0.0400839 0.6158 Uiso
O O 0.366047 0.360597 0.290084 0.6158 Uiso
O O 0.633953 0.639403 0.790084 0.6158 Uiso
O O 0.639403 0.633953 0.209916 0.6158 Uiso
O O 0.360597 0.366047 0.709916 0.6158 Uiso
O O 0.133953 0.860597 0.459916 0.6158 Uiso
O O 0.866047 0.139403 0.959916 0.6158 Uiso
O O 0.870936 0.101168 0.502779 0.5616 Uiso
O O 0.129064 0.898832 0.00277924 0.5616 Uiso
O O 0.398832 0.370936 0.252779 0.5616 Uiso
O O 0.601168 0.629064 0.752779 0.5616 Uiso
O O 0.629064 0.601168 0.247221 0.5616 Uiso
O O 0.370936 0.398832 0.747221 0.5616 Uiso
O O 0.101168 0.870936 0.497221 0.5616 Uiso
O O 0.898832 0.129064 0.997221 0.5616 Uiso
O O 0.791577 0.206233 0.150437 0.5516 Uiso
O O 0.208423 0.793767 0.650437 0.5516 Uiso
O O 0.293767 0.291577 0.900437 0.5516 Uiso
O O 0.706233 0.708423 0.400437 0.5516 Uiso
O O 0.708423 0.706233 0.599563 0.5516 Uiso
O O 0.291577 0.293767 0.0995634 0.5516 Uiso
O O 0.206233 0.791577 0.849563 0.5516 Uiso
O O 0.793767 0.208423 0.349563 0.5516 Uiso
O O 0.994869 0.281836 0.919776 0.6412 Uiso
O O 0.005131 0.718164 0.419776 0.6412 Uiso
O O 0.218164 0.494869 0.669776 0.6412 Uiso
O O 0.781836 0.505131 0.169776 0.6412 Uiso
O O 0.505131 0.781836 0.830224 0.6412 Uiso
O O 0.494869 0.218164 0.330224 0.6412 Uiso
O O 0.281836 0.994869 0.0802238 0.6412 Uiso
O O 0.718164 0.005131 0.580224 0.6412 Uiso
O O 0.032925 0.18483 0.976673 0.6407 Uiso
O O 0.967075 0.81517 0.476673 0.6407 Uiso
O O 0.31517 0.532925 0.726673 0.6407 Uiso
O O 0.68483 0.467075 0.226673 0.6407 Uiso
O O 0.467075 0.68483 0.773327 0.6407 Uiso
O O 0.532925 0.31517 0.273327 0.6407 Uiso
O O 0.18483 0.032925 0.0233268 0.6407 Uiso
O O 0.81517 0.967075 0.523327 0.6407 Uiso
O O 0.132617 0.0741512 0.889911 0.6032 Uiso
O O 0.867383 0.925849 0.389911 0.6032 Uiso
O O 0.425849 0.632617 0.639911 0.6032 Uiso
O O 0.574151 0.367383 0.139911 0.6032 Uiso
O O 0.367383 0.574151 0.860089 0.6032 Uiso
O O 0.632617 0.425849 0.360089 0.6032 Uiso
O O 0.0741512 0.132617 0.110089 0.6032 Uiso
O O 0.925849 0.867383 0.610089 0.6032 Uiso
O O 0.980864 0.0776779 0.594572 0.6466 Uiso
O O 0.0191362 0.922322 0.0945715 0.6466 Uiso
O O 0.422322 0.480864 0.344572 0.6466 Uiso
O O 0.577678 0.519136 0.844572 0.6466 Uiso
O O 0.519136 0.577678 0.155428 0.6466 Uiso
O O 0.480864 0.422322 0.655428 0.6466 Uiso
O O 0.0776779 0.980864 0.405428 0.6466 Uiso
O O 0.922322 0.0191362 0.905428 0.6466 Uiso
O O 0.867995 0.379923 0.722318 0.6615 Uiso
O O 0.132005 0.620077 0.222318 0.6615 Uiso
O O 0.120077 0.367995 0.472318 0.6615 Uiso
O O 0.879923 0.632005 0.972318 0.6615 Uiso
O O 0.632005 0.879923 0.0276818 0.6615 Uiso
O O 0.367995 0.120077 0.527682 0.6615 Uiso
O O 0.379923 0.867995 0.277682 0.6615 Uiso
O O 0.620077 0.132005 0.777682 0.6615 Uiso
O O 0.086132 0.14857 0.9341 0.6348 Uiso
O O 0.913868 0.85143 0.4341 0.6348 Uiso
O O 0.35143 0.586132 0.6841 0.6348 Uiso
O O 0.64857 0.413868 0.1841 0.6348 Uiso
O O 0.413868 0.64857 0.8159 0.6348 Uiso
O O 0.586132 0.35143 0.3159 0.6348 Uiso
O O 0.14857 0.086132 0.0659002 0.6348 Uiso
O O 0.85143 0.913868 0.5659 0.6348 Uiso
O O 0.135265 0.108235 0.892983 0.6438 Uiso
O O 0.864735 0.891765 0.392983 0.6438 Uiso
O O 0.391765 0.635265 0.642983 0.6438 Uiso
O O 0.608235 0.364735 0.142983 0.6438 Uiso
O O 0.364735 0.608235 0.857017 0.6438 Uiso
O O 0.635265 0.391765 0.357017 0.6438 Uiso
O O 0.108235 0.135265 0.107017 0.6438 Uiso
O O 0.891765 0.864735 0.607017 0.6438 Uiso
O O 0.966871 0.525806 0.368546 0.6325 Uiso
O O 0.0331287 0.474194 0.868546 0.6325 Uiso
O O 0.974194 0.466871 0.118546 0.6325 Uiso
O O 0.0258061 0.533129 0.618546 0.6325 Uiso
O O 0.533129 0.0258061 0.381454 0.6325 Uiso
O O 0.466871 0.974194 0.881454 0.6325 Uiso
O O 0.525806 0.966871 0.631454 0.6325 Uiso
O O 0.474194 0.0331287 0.131454 0.6325 Uiso
O O 0.801419 0.26811 0.641778 0.6462 Uiso
O O 0.198581 0.73189 0.141778 0.6462 Uiso
O O 0.23189 0.301419 0.391778 0.6462 Uiso
O O 0.76811 0.698581 0.891778 0.6462 Uiso
O O 0.698581 0.76811 0.108222 0.6462 Uiso
O O 0.301419 0.23189 0.608222 0.6462 Uiso
O O 0.26811 0.801419 0.358222 0.6462 Uiso
O O 0.73189 0.198581 0.858222 0.6462 Uiso
O O 0.875214 0.348335 0.796398 0.5901 Uiso
O O 0.124786 0.651665 0.296398 0.5901 Uiso
O O 0.151665 0.375214 0.546398 0.5901 Uiso
O O 0.848335 0.624786 0.0463981 0.5901 Uiso
O O 0.624786 0.848335 0.953602 0.5901 Uiso
O O 0.375214 0.151665 0.453602 0.5901 Uiso
O O 0.348335 0.875214 0.203602 0.5901 Uiso
O O 0.651665 0.124786 0.703602 0.5901 Uiso
O O 0.235033 0.194469 0.585252 0.5194 Uiso
O O 0.764967 0.805531 0.085252 0.5194 Uiso
O O 0.305531 0.735033 0.335252 0.5194 Uiso
O O 0.694469 0.264967 0.835252 0.5194 Uiso
O O 0.264967 0.694469 0.164748 0.5194 Uiso
O O 0.735033 0.305531 0.664748 0.5194 Uiso
O O 0.194469 0.235033 0.414748 0.5194 Uiso
O O 0.805531 0.764967 0.914748 0.5194 Uiso
O O 0.161187 0.161187 -1.48e-06 0.4411 Uiso
O O 0.161187 0.161187 0.999999 0.4411 Uiso
O O 0.838813 0.838813 0.499999 0.4411 Uiso
O O 0.338813 0.661187 0.749999 0.4411 Uiso
O O 0.661187 0.338813 0.249999 0.4411 Uiso
O O 0.184869 0.184869 0.499999 0.1731 Uiso
O O 0.815131 0.815131 -7.4e-07 0.1731 Uiso
O O 0.815131 0.815131 0.999999 0.1731 Uiso
O O 0.315131 0.684869 0.249999 0.1731 Uiso
O O 0.684869 0.315131 0.749999 0.1731 Uiso

#END
