
##########################################################################
#               Crystallographic Information Format file
#               Produced by PyCifRW module
#
#  This is a CIF file.  CIF has been adopted by the International
#  Union of Crystallography as the standard for data archiving and
#  transmission.
#
#  For information on this file format, follow the CIF links at
#  http://www.iucr.org
##########################################################################

data_quartz_kinematical

_symmetry_cell_setting                  trigonal
_symmetry_space_group_name_H-M          'P 32 2 1'
_symmetry_Int_Tables_number             154
_space_group_name_Hall                  'P 32 2"'
loop_
  _symmetry_equiv_pos_site_id
  _symmetry_equiv_pos_as_xyz
         1         'x,y,z'
         2         '-y,x-y,2/3+z'
         3         '-x+y,-x,1/3+z'
         4         'y,x,-z'
         5         'x-y,-y,1/3-z'
         6         '-x,-x+y,2/3-z'
_cell_length_a                          4.9226
_cell_length_b                          4.9226
_cell_length_c                          5.4003
_cell_angle_alpha                       90
_cell_angle_beta                        90
_cell_angle_gamma                       120
_cell_volume                            113.328
loop_
  _atom_site_label
  _atom_site_type_symbol
  _atom_site_fract_x
  _atom_site_fract_y
  _atom_site_fract_z
  _atom_site_thermal_displace_type
  _atom_site_u_iso_or_equiv
  _atom_site_site_symmetry_multiplicity
  _atom_site_occupancy
  _atom_site_calc_flag
  _atom_site_refinement_flags
  _atom_site_disorder_assembly
  _atom_site_disorder_group
         Si1       Si        1.000000  0.470878  0.833333  Uani      0.013734  3        1        d        .        .        .
         O1        O         0.854019  0.584896  0.619252  Uani      0.027717  6        1        d        .        .        .
loop_
  _atom_site_aniso_label
  _atom_site_aniso_type_symbol
  _atom_site_aniso_U_11
  _atom_site_aniso_U_22
  _atom_site_aniso_U_33
  _atom_site_aniso_U_12
  _atom_site_aniso_U_13
  _atom_site_aniso_U_23
         Si1       Si        0.016(2)  0.0099(14)          0.0027(13)          0.0082(10)         -0.0032(12)        -0.0016(6)
         O1        O         0.017(2)  0.020(3)  0.0178(17)          0.0125(18)         -0.0023(17)        0.0046(19)
